
---------- Begin Simulation Statistics ----------
sim_seconds                                  0.000096                       # Number of seconds simulated
sim_ticks                                    95698500                       # Number of ticks simulated
final_tick                                   95698500                       # Number of ticks from beginning of simulation (restored from checkpoints and never reset)
sim_freq                                 1000000000000                       # Frequency of simulated ticks
host_inst_rate                                 197197                       # Simulator instruction rate (inst/s)
host_op_rate                                   200343                       # Simulator op (including micro ops) rate (op/s)
host_tick_rate                               16952086                       # Simulator tick rate (ticks/s)
host_mem_usage                                 648192                       # Number of bytes of host memory used
host_seconds                                     5.65                       # Real time elapsed on the host
sim_insts                                     1113215                       # Number of instructions simulated
sim_ops                                       1130979                       # Number of ops (including micro ops) simulated
system.voltage_domain.voltage                       1                       # Voltage in Volts
system.clk_domain.clock                          1000                       # Clock period in ticks
system.mem_ctrls.bytes_read::cpu0.inst          39104                       # Number of bytes read from this memory
system.mem_ctrls.bytes_read::cpu0.data          60608                       # Number of bytes read from this memory
system.mem_ctrls.bytes_read::cpu1.inst           3392                       # Number of bytes read from this memory
system.mem_ctrls.bytes_read::cpu1.data           1600                       # Number of bytes read from this memory
system.mem_ctrls.bytes_read::cpu2.inst           3584                       # Number of bytes read from this memory
system.mem_ctrls.bytes_read::cpu2.data           2432                       # Number of bytes read from this memory
system.mem_ctrls.bytes_read::cpu3.inst           3200                       # Number of bytes read from this memory
system.mem_ctrls.bytes_read::cpu3.data           1984                       # Number of bytes read from this memory
system.mem_ctrls.bytes_read::total             115904                       # Number of bytes read from this memory
system.mem_ctrls.bytes_inst_read::cpu0.inst        39104                       # Number of instructions bytes read from this memory
system.mem_ctrls.bytes_inst_read::cpu1.inst         3392                       # Number of instructions bytes read from this memory
system.mem_ctrls.bytes_inst_read::cpu2.inst         3584                       # Number of instructions bytes read from this memory
system.mem_ctrls.bytes_inst_read::cpu3.inst         3200                       # Number of instructions bytes read from this memory
system.mem_ctrls.bytes_inst_read::total         49280                       # Number of instructions bytes read from this memory
system.mem_ctrls.bytes_written::writebacks         5760                       # Number of bytes written to this memory
system.mem_ctrls.bytes_written::total            5760                       # Number of bytes written to this memory
system.mem_ctrls.num_reads::cpu0.inst             611                       # Number of read requests responded to by this memory
system.mem_ctrls.num_reads::cpu0.data             947                       # Number of read requests responded to by this memory
system.mem_ctrls.num_reads::cpu1.inst              53                       # Number of read requests responded to by this memory
system.mem_ctrls.num_reads::cpu1.data              25                       # Number of read requests responded to by this memory
system.mem_ctrls.num_reads::cpu2.inst              56                       # Number of read requests responded to by this memory
system.mem_ctrls.num_reads::cpu2.data              38                       # Number of read requests responded to by this memory
system.mem_ctrls.num_reads::cpu3.inst              50                       # Number of read requests responded to by this memory
system.mem_ctrls.num_reads::cpu3.data              31                       # Number of read requests responded to by this memory
system.mem_ctrls.num_reads::total                1811                       # Number of read requests responded to by this memory
system.mem_ctrls.num_writes::writebacks            90                       # Number of write requests responded to by this memory
system.mem_ctrls.num_writes::total                 90                       # Number of write requests responded to by this memory
system.mem_ctrls.bw_read::cpu0.inst         408616645                       # Total read bandwidth from this memory (bytes/s)
system.mem_ctrls.bw_read::cpu0.data         633322361                       # Total read bandwidth from this memory (bytes/s)
system.mem_ctrls.bw_read::cpu1.inst          35444652                       # Total read bandwidth from this memory (bytes/s)
system.mem_ctrls.bw_read::cpu1.data          16719175                       # Total read bandwidth from this memory (bytes/s)
system.mem_ctrls.bw_read::cpu2.inst          37450953                       # Total read bandwidth from this memory (bytes/s)
system.mem_ctrls.bw_read::cpu2.data          25413146                       # Total read bandwidth from this memory (bytes/s)
system.mem_ctrls.bw_read::cpu3.inst          33438351                       # Total read bandwidth from this memory (bytes/s)
system.mem_ctrls.bw_read::cpu3.data          20731777                       # Total read bandwidth from this memory (bytes/s)
system.mem_ctrls.bw_read::total            1211137061                       # Total read bandwidth from this memory (bytes/s)
system.mem_ctrls.bw_inst_read::cpu0.inst    408616645                       # Instruction read bandwidth from this memory (bytes/s)
system.mem_ctrls.bw_inst_read::cpu1.inst     35444652                       # Instruction read bandwidth from this memory (bytes/s)
system.mem_ctrls.bw_inst_read::cpu2.inst     37450953                       # Instruction read bandwidth from this memory (bytes/s)
system.mem_ctrls.bw_inst_read::cpu3.inst     33438351                       # Instruction read bandwidth from this memory (bytes/s)
system.mem_ctrls.bw_inst_read::total        514950600                       # Instruction read bandwidth from this memory (bytes/s)
system.mem_ctrls.bw_write::writebacks        60189031                       # Write bandwidth from this memory (bytes/s)
system.mem_ctrls.bw_write::total             60189031                       # Write bandwidth from this memory (bytes/s)
system.mem_ctrls.bw_total::writebacks        60189031                       # Total bandwidth to/from this memory (bytes/s)
system.mem_ctrls.bw_total::cpu0.inst        408616645                       # Total bandwidth to/from this memory (bytes/s)
system.mem_ctrls.bw_total::cpu0.data        633322361                       # Total bandwidth to/from this memory (bytes/s)
system.mem_ctrls.bw_total::cpu1.inst         35444652                       # Total bandwidth to/from this memory (bytes/s)
system.mem_ctrls.bw_total::cpu1.data         16719175                       # Total bandwidth to/from this memory (bytes/s)
system.mem_ctrls.bw_total::cpu2.inst         37450953                       # Total bandwidth to/from this memory (bytes/s)
system.mem_ctrls.bw_total::cpu2.data         25413146                       # Total bandwidth to/from this memory (bytes/s)
system.mem_ctrls.bw_total::cpu3.inst         33438351                       # Total bandwidth to/from this memory (bytes/s)
system.mem_ctrls.bw_total::cpu3.data         20731777                       # Total bandwidth to/from this memory (bytes/s)
system.mem_ctrls.bw_total::total           1271326092                       # Total bandwidth to/from this memory (bytes/s)
system.mem_ctrls.readReqs                        1812                       # Number of read requests accepted
system.mem_ctrls.writeReqs                         90                       # Number of write requests accepted
system.mem_ctrls.readBursts                      1812                       # Number of DRAM read bursts, including those serviced by the write queue
system.mem_ctrls.writeBursts                       90                       # Number of DRAM write bursts, including those merged in the write queue
system.mem_ctrls.bytesReadDRAM                 112576                       # Total number of bytes read from DRAM
system.mem_ctrls.bytesReadWrQ                    3392                       # Total number of bytes read from write queue
system.mem_ctrls.bytesWritten                    4416                       # Total number of bytes written to DRAM
system.mem_ctrls.bytesReadSys                  115968                       # Total read bytes from the system interface side
system.mem_ctrls.bytesWrittenSys                 5760                       # Total written bytes from the system interface side
system.mem_ctrls.servicedByWrQ                     53                       # Number of DRAM read bursts serviced by the write queue
system.mem_ctrls.mergedWrBursts                     2                       # Number of DRAM write bursts merged with an existing one
system.mem_ctrls.neitherReadNorWriteReqs            7                       # Number of requests that are neither read nor write
system.mem_ctrls.perBankRdBursts::0               184                       # Per bank write bursts
system.mem_ctrls.perBankRdBursts::1               236                       # Per bank write bursts
system.mem_ctrls.perBankRdBursts::2               179                       # Per bank write bursts
system.mem_ctrls.perBankRdBursts::3               226                       # Per bank write bursts
system.mem_ctrls.perBankRdBursts::4               163                       # Per bank write bursts
system.mem_ctrls.perBankRdBursts::5               162                       # Per bank write bursts
system.mem_ctrls.perBankRdBursts::6               233                       # Per bank write bursts
system.mem_ctrls.perBankRdBursts::7               159                       # Per bank write bursts
system.mem_ctrls.perBankRdBursts::8                14                       # Per bank write bursts
system.mem_ctrls.perBankRdBursts::9                10                       # Per bank write bursts
system.mem_ctrls.perBankRdBursts::10                0                       # Per bank write bursts
system.mem_ctrls.perBankRdBursts::11               14                       # Per bank write bursts
system.mem_ctrls.perBankRdBursts::12                9                       # Per bank write bursts
system.mem_ctrls.perBankRdBursts::13               38                       # Per bank write bursts
system.mem_ctrls.perBankRdBursts::14               40                       # Per bank write bursts
system.mem_ctrls.perBankRdBursts::15               92                       # Per bank write bursts
system.mem_ctrls.perBankWrBursts::0                 1                       # Per bank write bursts
system.mem_ctrls.perBankWrBursts::1                 1                       # Per bank write bursts
system.mem_ctrls.perBankWrBursts::2                 4                       # Per bank write bursts
system.mem_ctrls.perBankWrBursts::3                23                       # Per bank write bursts
system.mem_ctrls.perBankWrBursts::4                 0                       # Per bank write bursts
system.mem_ctrls.perBankWrBursts::5                 0                       # Per bank write bursts
system.mem_ctrls.perBankWrBursts::6                 0                       # Per bank write bursts
system.mem_ctrls.perBankWrBursts::7                13                       # Per bank write bursts
system.mem_ctrls.perBankWrBursts::8                 0                       # Per bank write bursts
system.mem_ctrls.perBankWrBursts::9                 0                       # Per bank write bursts
system.mem_ctrls.perBankWrBursts::10                0                       # Per bank write bursts
system.mem_ctrls.perBankWrBursts::11                0                       # Per bank write bursts
system.mem_ctrls.perBankWrBursts::12                0                       # Per bank write bursts
system.mem_ctrls.perBankWrBursts::13                0                       # Per bank write bursts
system.mem_ctrls.perBankWrBursts::14                0                       # Per bank write bursts
system.mem_ctrls.perBankWrBursts::15               27                       # Per bank write bursts
system.mem_ctrls.numRdRetry                         0                       # Number of times read queue was full causing retry
system.mem_ctrls.numWrRetry                         0                       # Number of times write queue was full causing retry
system.mem_ctrls.totGap                      95691000                       # Total gap between requests
system.mem_ctrls.readPktSize::0                     0                       # Read request sizes (log2)
system.mem_ctrls.readPktSize::1                     0                       # Read request sizes (log2)
system.mem_ctrls.readPktSize::2                     0                       # Read request sizes (log2)
system.mem_ctrls.readPktSize::3                     0                       # Read request sizes (log2)
system.mem_ctrls.readPktSize::4                     0                       # Read request sizes (log2)
system.mem_ctrls.readPktSize::5                     0                       # Read request sizes (log2)
system.mem_ctrls.readPktSize::6                  1812                       # Read request sizes (log2)
system.mem_ctrls.writePktSize::0                    0                       # Write request sizes (log2)
system.mem_ctrls.writePktSize::1                    0                       # Write request sizes (log2)
system.mem_ctrls.writePktSize::2                    0                       # Write request sizes (log2)
system.mem_ctrls.writePktSize::3                    0                       # Write request sizes (log2)
system.mem_ctrls.writePktSize::4                    0                       # Write request sizes (log2)
system.mem_ctrls.writePktSize::5                    0                       # Write request sizes (log2)
system.mem_ctrls.writePktSize::6                   90                       # Write request sizes (log2)
system.mem_ctrls.rdQLenPdf::0                     881                       # What read queue length does an incoming req see
system.mem_ctrls.rdQLenPdf::1                     571                       # What read queue length does an incoming req see
system.mem_ctrls.rdQLenPdf::2                     126                       # What read queue length does an incoming req see
system.mem_ctrls.rdQLenPdf::3                      73                       # What read queue length does an incoming req see
system.mem_ctrls.rdQLenPdf::4                      57                       # What read queue length does an incoming req see
system.mem_ctrls.rdQLenPdf::5                      31                       # What read queue length does an incoming req see
system.mem_ctrls.rdQLenPdf::6                      14                       # What read queue length does an incoming req see
system.mem_ctrls.rdQLenPdf::7                       5                       # What read queue length does an incoming req see
system.mem_ctrls.rdQLenPdf::8                       1                       # What read queue length does an incoming req see
system.mem_ctrls.rdQLenPdf::9                       0                       # What read queue length does an incoming req see
system.mem_ctrls.rdQLenPdf::10                      0                       # What read queue length does an incoming req see
system.mem_ctrls.rdQLenPdf::11                      0                       # What read queue length does an incoming req see
system.mem_ctrls.rdQLenPdf::12                      0                       # What read queue length does an incoming req see
system.mem_ctrls.rdQLenPdf::13                      0                       # What read queue length does an incoming req see
system.mem_ctrls.rdQLenPdf::14                      0                       # What read queue length does an incoming req see
system.mem_ctrls.rdQLenPdf::15                      0                       # What read queue length does an incoming req see
system.mem_ctrls.rdQLenPdf::16                      0                       # What read queue length does an incoming req see
system.mem_ctrls.rdQLenPdf::17                      0                       # What read queue length does an incoming req see
system.mem_ctrls.rdQLenPdf::18                      0                       # What read queue length does an incoming req see
system.mem_ctrls.rdQLenPdf::19                      0                       # What read queue length does an incoming req see
system.mem_ctrls.rdQLenPdf::20                      0                       # What read queue length does an incoming req see
system.mem_ctrls.rdQLenPdf::21                      0                       # What read queue length does an incoming req see
system.mem_ctrls.rdQLenPdf::22                      0                       # What read queue length does an incoming req see
system.mem_ctrls.rdQLenPdf::23                      0                       # What read queue length does an incoming req see
system.mem_ctrls.rdQLenPdf::24                      0                       # What read queue length does an incoming req see
system.mem_ctrls.rdQLenPdf::25                      0                       # What read queue length does an incoming req see
system.mem_ctrls.rdQLenPdf::26                      0                       # What read queue length does an incoming req see
system.mem_ctrls.rdQLenPdf::27                      0                       # What read queue length does an incoming req see
system.mem_ctrls.rdQLenPdf::28                      0                       # What read queue length does an incoming req see
system.mem_ctrls.rdQLenPdf::29                      0                       # What read queue length does an incoming req see
system.mem_ctrls.rdQLenPdf::30                      0                       # What read queue length does an incoming req see
system.mem_ctrls.rdQLenPdf::31                      0                       # What read queue length does an incoming req see
system.mem_ctrls.wrQLenPdf::0                       1                       # What write queue length does an incoming req see
system.mem_ctrls.wrQLenPdf::1                       1                       # What write queue length does an incoming req see
system.mem_ctrls.wrQLenPdf::2                       1                       # What write queue length does an incoming req see
system.mem_ctrls.wrQLenPdf::3                       1                       # What write queue length does an incoming req see
system.mem_ctrls.wrQLenPdf::4                       1                       # What write queue length does an incoming req see
system.mem_ctrls.wrQLenPdf::5                       1                       # What write queue length does an incoming req see
system.mem_ctrls.wrQLenPdf::6                       1                       # What write queue length does an incoming req see
system.mem_ctrls.wrQLenPdf::7                       1                       # What write queue length does an incoming req see
system.mem_ctrls.wrQLenPdf::8                       1                       # What write queue length does an incoming req see
system.mem_ctrls.wrQLenPdf::9                       1                       # What write queue length does an incoming req see
system.mem_ctrls.wrQLenPdf::10                      1                       # What write queue length does an incoming req see
system.mem_ctrls.wrQLenPdf::11                      1                       # What write queue length does an incoming req see
system.mem_ctrls.wrQLenPdf::12                      1                       # What write queue length does an incoming req see
system.mem_ctrls.wrQLenPdf::13                      1                       # What write queue length does an incoming req see
system.mem_ctrls.wrQLenPdf::14                      1                       # What write queue length does an incoming req see
system.mem_ctrls.wrQLenPdf::15                      2                       # What write queue length does an incoming req see
system.mem_ctrls.wrQLenPdf::16                      4                       # What write queue length does an incoming req see
system.mem_ctrls.wrQLenPdf::17                      5                       # What write queue length does an incoming req see
system.mem_ctrls.wrQLenPdf::18                      5                       # What write queue length does an incoming req see
system.mem_ctrls.wrQLenPdf::19                      4                       # What write queue length does an incoming req see
system.mem_ctrls.wrQLenPdf::20                      4                       # What write queue length does an incoming req see
system.mem_ctrls.wrQLenPdf::21                      5                       # What write queue length does an incoming req see
system.mem_ctrls.wrQLenPdf::22                      4                       # What write queue length does an incoming req see
system.mem_ctrls.wrQLenPdf::23                      4                       # What write queue length does an incoming req see
system.mem_ctrls.wrQLenPdf::24                      4                       # What write queue length does an incoming req see
system.mem_ctrls.wrQLenPdf::25                      4                       # What write queue length does an incoming req see
system.mem_ctrls.wrQLenPdf::26                      4                       # What write queue length does an incoming req see
system.mem_ctrls.wrQLenPdf::27                      4                       # What write queue length does an incoming req see
system.mem_ctrls.wrQLenPdf::28                      4                       # What write queue length does an incoming req see
system.mem_ctrls.wrQLenPdf::29                      4                       # What write queue length does an incoming req see
system.mem_ctrls.wrQLenPdf::30                      4                       # What write queue length does an incoming req see
system.mem_ctrls.wrQLenPdf::31                      4                       # What write queue length does an incoming req see
system.mem_ctrls.wrQLenPdf::32                      4                       # What write queue length does an incoming req see
system.mem_ctrls.wrQLenPdf::33                      0                       # What write queue length does an incoming req see
system.mem_ctrls.wrQLenPdf::34                      0                       # What write queue length does an incoming req see
system.mem_ctrls.wrQLenPdf::35                      0                       # What write queue length does an incoming req see
system.mem_ctrls.wrQLenPdf::36                      0                       # What write queue length does an incoming req see
system.mem_ctrls.wrQLenPdf::37                      0                       # What write queue length does an incoming req see
system.mem_ctrls.wrQLenPdf::38                      0                       # What write queue length does an incoming req see
system.mem_ctrls.wrQLenPdf::39                      0                       # What write queue length does an incoming req see
system.mem_ctrls.wrQLenPdf::40                      0                       # What write queue length does an incoming req see
system.mem_ctrls.wrQLenPdf::41                      0                       # What write queue length does an incoming req see
system.mem_ctrls.wrQLenPdf::42                      0                       # What write queue length does an incoming req see
system.mem_ctrls.wrQLenPdf::43                      0                       # What write queue length does an incoming req see
system.mem_ctrls.wrQLenPdf::44                      0                       # What write queue length does an incoming req see
system.mem_ctrls.wrQLenPdf::45                      0                       # What write queue length does an incoming req see
system.mem_ctrls.wrQLenPdf::46                      0                       # What write queue length does an incoming req see
system.mem_ctrls.wrQLenPdf::47                      0                       # What write queue length does an incoming req see
system.mem_ctrls.wrQLenPdf::48                      0                       # What write queue length does an incoming req see
system.mem_ctrls.wrQLenPdf::49                      0                       # What write queue length does an incoming req see
system.mem_ctrls.wrQLenPdf::50                      0                       # What write queue length does an incoming req see
system.mem_ctrls.wrQLenPdf::51                      0                       # What write queue length does an incoming req see
system.mem_ctrls.wrQLenPdf::52                      0                       # What write queue length does an incoming req see
system.mem_ctrls.wrQLenPdf::53                      0                       # What write queue length does an incoming req see
system.mem_ctrls.wrQLenPdf::54                      0                       # What write queue length does an incoming req see
system.mem_ctrls.wrQLenPdf::55                      0                       # What write queue length does an incoming req see
system.mem_ctrls.wrQLenPdf::56                      0                       # What write queue length does an incoming req see
system.mem_ctrls.wrQLenPdf::57                      0                       # What write queue length does an incoming req see
system.mem_ctrls.wrQLenPdf::58                      0                       # What write queue length does an incoming req see
system.mem_ctrls.wrQLenPdf::59                      0                       # What write queue length does an incoming req see
system.mem_ctrls.wrQLenPdf::60                      0                       # What write queue length does an incoming req see
system.mem_ctrls.wrQLenPdf::61                      0                       # What write queue length does an incoming req see
system.mem_ctrls.wrQLenPdf::62                      0                       # What write queue length does an incoming req see
system.mem_ctrls.wrQLenPdf::63                      0                       # What write queue length does an incoming req see
system.mem_ctrls.bytesPerActivate::samples          299                       # Bytes accessed per row activation
system.mem_ctrls.bytesPerActivate::mean    384.856187                       # Bytes accessed per row activation
system.mem_ctrls.bytesPerActivate::gmean   222.720691                       # Bytes accessed per row activation
system.mem_ctrls.bytesPerActivate::stdev   370.629814                       # Bytes accessed per row activation
system.mem_ctrls.bytesPerActivate::0-127           98     32.78%     32.78% # Bytes accessed per row activation
system.mem_ctrls.bytesPerActivate::128-255           61     20.40%     53.18% # Bytes accessed per row activation
system.mem_ctrls.bytesPerActivate::256-383           25      8.36%     61.54% # Bytes accessed per row activation
system.mem_ctrls.bytesPerActivate::384-511           19      6.35%     67.89% # Bytes accessed per row activation
system.mem_ctrls.bytesPerActivate::512-639           13      4.35%     72.24% # Bytes accessed per row activation
system.mem_ctrls.bytesPerActivate::640-767           12      4.01%     76.25% # Bytes accessed per row activation
system.mem_ctrls.bytesPerActivate::768-895           10      3.34%     79.60% # Bytes accessed per row activation
system.mem_ctrls.bytesPerActivate::896-1023            6      2.01%     81.61% # Bytes accessed per row activation
system.mem_ctrls.bytesPerActivate::1024-1151           55     18.39%    100.00% # Bytes accessed per row activation
system.mem_ctrls.bytesPerActivate::total          299                       # Bytes accessed per row activation
system.mem_ctrls.rdPerTurnAround::samples            4                       # Reads before turning the bus around for writes
system.mem_ctrls.rdPerTurnAround::mean     417.750000                       # Reads before turning the bus around for writes
system.mem_ctrls.rdPerTurnAround::gmean    185.361317                       # Reads before turning the bus around for writes
system.mem_ctrls.rdPerTurnAround::stdev    551.005974                       # Reads before turning the bus around for writes
system.mem_ctrls.rdPerTurnAround::0-63              1     25.00%     25.00% # Reads before turning the bus around for writes
system.mem_ctrls.rdPerTurnAround::64-127            1     25.00%     50.00% # Reads before turning the bus around for writes
system.mem_ctrls.rdPerTurnAround::320-383            1     25.00%     75.00% # Reads before turning the bus around for writes
system.mem_ctrls.rdPerTurnAround::1216-1279            1     25.00%    100.00% # Reads before turning the bus around for writes
system.mem_ctrls.rdPerTurnAround::total             4                       # Reads before turning the bus around for writes
system.mem_ctrls.wrPerTurnAround::samples            4                       # Writes before turning the bus around for reads
system.mem_ctrls.wrPerTurnAround::mean      17.250000                       # Writes before turning the bus around for reads
system.mem_ctrls.wrPerTurnAround::gmean     17.125561                       # Writes before turning the bus around for reads
system.mem_ctrls.wrPerTurnAround::stdev      2.500000                       # Writes before turning the bus around for reads
system.mem_ctrls.wrPerTurnAround::16                3     75.00%     75.00% # Writes before turning the bus around for reads
system.mem_ctrls.wrPerTurnAround::21                1     25.00%    100.00% # Writes before turning the bus around for reads
system.mem_ctrls.wrPerTurnAround::total             4                       # Writes before turning the bus around for reads
system.mem_ctrls.totQLat                     17924000                       # Total ticks spent queuing
system.mem_ctrls.totMemAccLat                50905250                       # Total ticks spent from burst creation until serviced by the DRAM
system.mem_ctrls.totBusLat                    8795000                       # Total ticks spent in databus transfers
system.mem_ctrls.avgQLat                     10189.88                       # Average queueing delay per DRAM burst
system.mem_ctrls.avgBusLat                    5000.00                       # Average bus latency per DRAM burst
system.mem_ctrls.avgMemAccLat                28939.88                       # Average memory access latency per DRAM burst
system.mem_ctrls.avgRdBW                      1176.36                       # Average DRAM read bandwidth in MiByte/s
system.mem_ctrls.avgWrBW                        46.14                       # Average achieved write bandwidth in MiByte/s
system.mem_ctrls.avgRdBWSys                   1211.81                       # Average system read bandwidth in MiByte/s
system.mem_ctrls.avgWrBWSys                     60.19                       # Average system write bandwidth in MiByte/s
system.mem_ctrls.peakBW                      12800.00                       # Theoretical peak bandwidth in MiByte/s
system.mem_ctrls.busUtil                         9.55                       # Data bus utilization in percentage
system.mem_ctrls.busUtilRead                     9.19                       # Data bus utilization in percentage for reads
system.mem_ctrls.busUtilWrite                    0.36                       # Data bus utilization in percentage for writes
system.mem_ctrls.avgRdQLen                       1.56                       # Average read queue length when enqueuing
system.mem_ctrls.avgWrQLen                      18.44                       # Average write queue length when enqueuing
system.mem_ctrls.readRowHits                     1463                       # Number of row buffer hits during reads
system.mem_ctrls.writeRowHits                      57                       # Number of row buffer hits during writes
system.mem_ctrls.readRowHitRate                 83.17                       # Row buffer hit rate for reads
system.mem_ctrls.writeRowHitRate                64.77                       # Row buffer hit rate for writes
system.mem_ctrls.avgGap                      50310.73                       # Average gap between requests
system.mem_ctrls.pageHitRate                    82.30                       # Row buffer hit rate, read and write combined
system.mem_ctrls_0.actEnergy                  1912680                       # Energy for activate commands per rank (pJ)
system.mem_ctrls_0.preEnergy                  1043625                       # Energy for precharge commands per rank (pJ)
system.mem_ctrls_0.readEnergy                11887200                       # Energy for read commands per rank (pJ)
system.mem_ctrls_0.writeEnergy                 272160                       # Energy for write commands per rank (pJ)
system.mem_ctrls_0.refreshEnergy              6102720                       # Energy for refresh commands per rank (pJ)
system.mem_ctrls_0.actBackEnergy             53156205                       # Energy for active background per rank (pJ)
system.mem_ctrls_0.preBackEnergy              9588750                       # Energy for precharge background per rank (pJ)
system.mem_ctrls_0.totalEnergy               83963340                       # Total energy per rank (pJ)
system.mem_ctrls_0.averagePower            896.134692                       # Core power per rank (mW)
system.mem_ctrls_0.memoryStateTime::IDLE     15470250                       # Time in different power states
system.mem_ctrls_0.memoryStateTime::REF       3120000                       # Time in different power states
system.mem_ctrls_0.memoryStateTime::PRE_PDN            0                       # Time in different power states
system.mem_ctrls_0.memoryStateTime::ACT      75118500                       # Time in different power states
system.mem_ctrls_0.memoryStateTime::ACT_PDN            0                       # Time in different power states
system.mem_ctrls_1.actEnergy                   302400                       # Energy for activate commands per rank (pJ)
system.mem_ctrls_1.preEnergy                   165000                       # Energy for precharge commands per rank (pJ)
system.mem_ctrls_1.readEnergy                 1380600                       # Energy for read commands per rank (pJ)
system.mem_ctrls_1.writeEnergy                 174960                       # Energy for write commands per rank (pJ)
system.mem_ctrls_1.refreshEnergy              6102720                       # Energy for refresh commands per rank (pJ)
system.mem_ctrls_1.actBackEnergy             33312510                       # Energy for active background per rank (pJ)
system.mem_ctrls_1.preBackEnergy             26996250                       # Energy for precharge background per rank (pJ)
system.mem_ctrls_1.totalEnergy               68434440                       # Total energy per rank (pJ)
system.mem_ctrls_1.averagePower            730.386115                       # Core power per rank (mW)
system.mem_ctrls_1.memoryStateTime::IDLE     44755000                       # Time in different power states
system.mem_ctrls_1.memoryStateTime::REF       3120000                       # Time in different power states
system.mem_ctrls_1.memoryStateTime::PRE_PDN            0                       # Time in different power states
system.mem_ctrls_1.memoryStateTime::ACT      45900000                       # Time in different power states
system.mem_ctrls_1.memoryStateTime::ACT_PDN            0                       # Time in different power states
system.cpu0.branchPred.lookups                  32742                       # Number of BP lookups
system.cpu0.branchPred.condPredicted            30453                       # Number of conditional branches predicted
system.cpu0.branchPred.condIncorrect             1439                       # Number of conditional branches incorrect
system.cpu0.branchPred.BTBLookups               29122                       # Number of BTB lookups
system.cpu0.branchPred.BTBHits                  26054                       # Number of BTB hits
system.cpu0.branchPred.BTBCorrect                   0                       # Number of correct BTB predictions (this stat may not work properly.
system.cpu0.branchPred.BTBHitPct            89.465009                       # BTB Hit Percentage
system.cpu0.branchPred.usedRAS                    886                       # Number of times the RAS was used to get a target.
system.cpu0.branchPred.RASInCorrect                13                       # Number of incorrect RAS predictions.
system.cpu_voltage_domain.voltage                   1                       # Voltage in Volts
system.cpu_clk_domain.clock                       500                       # Clock period in ticks
system.cpu0.dstage2_mmu.stage2_tlb.walker.walks            0                       # Table walker walks requested
system.cpu0.dstage2_mmu.stage2_tlb.walker.walkRequestOrigin_Requested::Data            0                       # Table walker requests started/completed, data/inst
system.cpu0.dstage2_mmu.stage2_tlb.walker.walkRequestOrigin_Requested::Inst            0                       # Table walker requests started/completed, data/inst
system.cpu0.dstage2_mmu.stage2_tlb.walker.walkRequestOrigin_Requested::total            0                       # Table walker requests started/completed, data/inst
system.cpu0.dstage2_mmu.stage2_tlb.walker.walkRequestOrigin_Completed::Data            0                       # Table walker requests started/completed, data/inst
system.cpu0.dstage2_mmu.stage2_tlb.walker.walkRequestOrigin_Completed::Inst            0                       # Table walker requests started/completed, data/inst
system.cpu0.dstage2_mmu.stage2_tlb.walker.walkRequestOrigin_Completed::total            0                       # Table walker requests started/completed, data/inst
system.cpu0.dstage2_mmu.stage2_tlb.walker.walkRequestOrigin::total            0                       # Table walker requests started/completed, data/inst
system.cpu0.dstage2_mmu.stage2_tlb.inst_hits            0                       # ITB inst hits
system.cpu0.dstage2_mmu.stage2_tlb.inst_misses            0                       # ITB inst misses
system.cpu0.dstage2_mmu.stage2_tlb.read_hits            0                       # DTB read hits
system.cpu0.dstage2_mmu.stage2_tlb.read_misses            0                       # DTB read misses
system.cpu0.dstage2_mmu.stage2_tlb.write_hits            0                       # DTB write hits
system.cpu0.dstage2_mmu.stage2_tlb.write_misses            0                       # DTB write misses
system.cpu0.dstage2_mmu.stage2_tlb.flush_tlb            0                       # Number of times complete TLB was flushed
system.cpu0.dstage2_mmu.stage2_tlb.flush_tlb_mva            0                       # Number of times TLB was flushed by MVA
system.cpu0.dstage2_mmu.stage2_tlb.flush_tlb_mva_asid            0                       # Number of times TLB was flushed by MVA & ASID
system.cpu0.dstage2_mmu.stage2_tlb.flush_tlb_asid            0                       # Number of times TLB was flushed by ASID
system.cpu0.dstage2_mmu.stage2_tlb.flush_entries            0                       # Number of entries that have been flushed from TLB
system.cpu0.dstage2_mmu.stage2_tlb.align_faults            0                       # Number of TLB faults due to alignment restrictions
system.cpu0.dstage2_mmu.stage2_tlb.prefetch_faults            0                       # Number of TLB faults due to prefetch
system.cpu0.dstage2_mmu.stage2_tlb.domain_faults            0                       # Number of TLB faults due to domain restrictions
system.cpu0.dstage2_mmu.stage2_tlb.perms_faults            0                       # Number of TLB faults due to permissions restrictions
system.cpu0.dstage2_mmu.stage2_tlb.read_accesses            0                       # DTB read accesses
system.cpu0.dstage2_mmu.stage2_tlb.write_accesses            0                       # DTB write accesses
system.cpu0.dstage2_mmu.stage2_tlb.inst_accesses            0                       # ITB inst accesses
system.cpu0.dstage2_mmu.stage2_tlb.hits             0                       # DTB hits
system.cpu0.dstage2_mmu.stage2_tlb.misses            0                       # DTB misses
system.cpu0.dstage2_mmu.stage2_tlb.accesses            0                       # DTB accesses
system.cpu0.dtb.walker.walks                        0                       # Table walker walks requested
system.cpu0.dtb.walker.walkRequestOrigin_Requested::Data            0                       # Table walker requests started/completed, data/inst
system.cpu0.dtb.walker.walkRequestOrigin_Requested::Inst            0                       # Table walker requests started/completed, data/inst
system.cpu0.dtb.walker.walkRequestOrigin_Requested::total            0                       # Table walker requests started/completed, data/inst
system.cpu0.dtb.walker.walkRequestOrigin_Completed::Data            0                       # Table walker requests started/completed, data/inst
system.cpu0.dtb.walker.walkRequestOrigin_Completed::Inst            0                       # Table walker requests started/completed, data/inst
system.cpu0.dtb.walker.walkRequestOrigin_Completed::total            0                       # Table walker requests started/completed, data/inst
system.cpu0.dtb.walker.walkRequestOrigin::total            0                       # Table walker requests started/completed, data/inst
system.cpu0.dtb.inst_hits                           0                       # ITB inst hits
system.cpu0.dtb.inst_misses                         0                       # ITB inst misses
system.cpu0.dtb.read_hits                           0                       # DTB read hits
system.cpu0.dtb.read_misses                         0                       # DTB read misses
system.cpu0.dtb.write_hits                          0                       # DTB write hits
system.cpu0.dtb.write_misses                        0                       # DTB write misses
system.cpu0.dtb.flush_tlb                           0                       # Number of times complete TLB was flushed
system.cpu0.dtb.flush_tlb_mva                       0                       # Number of times TLB was flushed by MVA
system.cpu0.dtb.flush_tlb_mva_asid                  0                       # Number of times TLB was flushed by MVA & ASID
system.cpu0.dtb.flush_tlb_asid                      0                       # Number of times TLB was flushed by ASID
system.cpu0.dtb.flush_entries                       0                       # Number of entries that have been flushed from TLB
system.cpu0.dtb.align_faults                        0                       # Number of TLB faults due to alignment restrictions
system.cpu0.dtb.prefetch_faults                     0                       # Number of TLB faults due to prefetch
system.cpu0.dtb.domain_faults                       0                       # Number of TLB faults due to domain restrictions
system.cpu0.dtb.perms_faults                        0                       # Number of TLB faults due to permissions restrictions
system.cpu0.dtb.read_accesses                       0                       # DTB read accesses
system.cpu0.dtb.write_accesses                      0                       # DTB write accesses
system.cpu0.dtb.inst_accesses                       0                       # ITB inst accesses
system.cpu0.dtb.hits                                0                       # DTB hits
system.cpu0.dtb.misses                              0                       # DTB misses
system.cpu0.dtb.accesses                            0                       # DTB accesses
system.cpu0.istage2_mmu.stage2_tlb.walker.walks            0                       # Table walker walks requested
system.cpu0.istage2_mmu.stage2_tlb.walker.walkRequestOrigin_Requested::Data            0                       # Table walker requests started/completed, data/inst
system.cpu0.istage2_mmu.stage2_tlb.walker.walkRequestOrigin_Requested::Inst            0                       # Table walker requests started/completed, data/inst
system.cpu0.istage2_mmu.stage2_tlb.walker.walkRequestOrigin_Requested::total            0                       # Table walker requests started/completed, data/inst
system.cpu0.istage2_mmu.stage2_tlb.walker.walkRequestOrigin_Completed::Data            0                       # Table walker requests started/completed, data/inst
system.cpu0.istage2_mmu.stage2_tlb.walker.walkRequestOrigin_Completed::Inst            0                       # Table walker requests started/completed, data/inst
system.cpu0.istage2_mmu.stage2_tlb.walker.walkRequestOrigin_Completed::total            0                       # Table walker requests started/completed, data/inst
system.cpu0.istage2_mmu.stage2_tlb.walker.walkRequestOrigin::total            0                       # Table walker requests started/completed, data/inst
system.cpu0.istage2_mmu.stage2_tlb.inst_hits            0                       # ITB inst hits
system.cpu0.istage2_mmu.stage2_tlb.inst_misses            0                       # ITB inst misses
system.cpu0.istage2_mmu.stage2_tlb.read_hits            0                       # DTB read hits
system.cpu0.istage2_mmu.stage2_tlb.read_misses            0                       # DTB read misses
system.cpu0.istage2_mmu.stage2_tlb.write_hits            0                       # DTB write hits
system.cpu0.istage2_mmu.stage2_tlb.write_misses            0                       # DTB write misses
system.cpu0.istage2_mmu.stage2_tlb.flush_tlb            0                       # Number of times complete TLB was flushed
system.cpu0.istage2_mmu.stage2_tlb.flush_tlb_mva            0                       # Number of times TLB was flushed by MVA
system.cpu0.istage2_mmu.stage2_tlb.flush_tlb_mva_asid            0                       # Number of times TLB was flushed by MVA & ASID
system.cpu0.istage2_mmu.stage2_tlb.flush_tlb_asid            0                       # Number of times TLB was flushed by ASID
system.cpu0.istage2_mmu.stage2_tlb.flush_entries            0                       # Number of entries that have been flushed from TLB
system.cpu0.istage2_mmu.stage2_tlb.align_faults            0                       # Number of TLB faults due to alignment restrictions
system.cpu0.istage2_mmu.stage2_tlb.prefetch_faults            0                       # Number of TLB faults due to prefetch
system.cpu0.istage2_mmu.stage2_tlb.domain_faults            0                       # Number of TLB faults due to domain restrictions
system.cpu0.istage2_mmu.stage2_tlb.perms_faults            0                       # Number of TLB faults due to permissions restrictions
system.cpu0.istage2_mmu.stage2_tlb.read_accesses            0                       # DTB read accesses
system.cpu0.istage2_mmu.stage2_tlb.write_accesses            0                       # DTB write accesses
system.cpu0.istage2_mmu.stage2_tlb.inst_accesses            0                       # ITB inst accesses
system.cpu0.istage2_mmu.stage2_tlb.hits             0                       # DTB hits
system.cpu0.istage2_mmu.stage2_tlb.misses            0                       # DTB misses
system.cpu0.istage2_mmu.stage2_tlb.accesses            0                       # DTB accesses
system.cpu0.itb.walker.walks                        0                       # Table walker walks requested
system.cpu0.itb.walker.walkRequestOrigin_Requested::Data            0                       # Table walker requests started/completed, data/inst
system.cpu0.itb.walker.walkRequestOrigin_Requested::Inst            0                       # Table walker requests started/completed, data/inst
system.cpu0.itb.walker.walkRequestOrigin_Requested::total            0                       # Table walker requests started/completed, data/inst
system.cpu0.itb.walker.walkRequestOrigin_Completed::Data            0                       # Table walker requests started/completed, data/inst
system.cpu0.itb.walker.walkRequestOrigin_Completed::Inst            0                       # Table walker requests started/completed, data/inst
system.cpu0.itb.walker.walkRequestOrigin_Completed::total            0                       # Table walker requests started/completed, data/inst
system.cpu0.itb.walker.walkRequestOrigin::total            0                       # Table walker requests started/completed, data/inst
system.cpu0.itb.inst_hits                           0                       # ITB inst hits
system.cpu0.itb.inst_misses                         0                       # ITB inst misses
system.cpu0.itb.read_hits                           0                       # DTB read hits
system.cpu0.itb.read_misses                         0                       # DTB read misses
system.cpu0.itb.write_hits                          0                       # DTB write hits
system.cpu0.itb.write_misses                        0                       # DTB write misses
system.cpu0.itb.flush_tlb                           0                       # Number of times complete TLB was flushed
system.cpu0.itb.flush_tlb_mva                       0                       # Number of times TLB was flushed by MVA
system.cpu0.itb.flush_tlb_mva_asid                  0                       # Number of times TLB was flushed by MVA & ASID
system.cpu0.itb.flush_tlb_asid                      0                       # Number of times TLB was flushed by ASID
system.cpu0.itb.flush_entries                       0                       # Number of entries that have been flushed from TLB
system.cpu0.itb.align_faults                        0                       # Number of TLB faults due to alignment restrictions
system.cpu0.itb.prefetch_faults                     0                       # Number of TLB faults due to prefetch
system.cpu0.itb.domain_faults                       0                       # Number of TLB faults due to domain restrictions
system.cpu0.itb.perms_faults                        0                       # Number of TLB faults due to permissions restrictions
system.cpu0.itb.read_accesses                       0                       # DTB read accesses
system.cpu0.itb.write_accesses                      0                       # DTB write accesses
system.cpu0.itb.inst_accesses                       0                       # ITB inst accesses
system.cpu0.itb.hits                                0                       # DTB hits
system.cpu0.itb.misses                              0                       # DTB misses
system.cpu0.itb.accesses                            0                       # DTB accesses
system.cpu0.workload.num_syscalls                 107                       # Number of system calls
system.cpu0.numCycles                          191398                       # number of cpu cycles simulated
system.cpu0.numWorkItemsStarted                     0                       # number of work items this cpu started
system.cpu0.numWorkItemsCompleted                   0                       # number of work items this cpu completed
system.cpu0.fetch.icacheStallCycles             56420                       # Number of cycles fetch is stalled on an Icache miss
system.cpu0.fetch.Insts                        354575                       # Number of instructions fetch has processed
system.cpu0.fetch.Branches                      32742                       # Number of branches that fetch encountered
system.cpu0.fetch.predictedBranches             26940                       # Number of branches that fetch has predicted taken
system.cpu0.fetch.Cycles                        99274                       # Number of cycles fetch has run and was not squashing or blocked
system.cpu0.fetch.SquashCycles                   3017                       # Number of cycles fetch has spent squashing
system.cpu0.fetch.MiscStallCycles                   1                       # Number of cycles fetch has spent waiting on interrupts, or bad addresses, or out of MSHRs
system.cpu0.fetch.PendingTrapStallCycles            1                       # Number of stall cycles due to pending traps
system.cpu0.fetch.CacheLines                    43106                       # Number of cache lines fetched
system.cpu0.fetch.IcacheSquashes                  741                       # Number of outstanding Icache misses that were squashed
system.cpu0.fetch.rateDist::samples            157204                       # Number of instructions fetched each cycle (Total)
system.cpu0.fetch.rateDist::mean             2.368559                       # Number of instructions fetched each cycle (Total)
system.cpu0.fetch.rateDist::stdev            3.405343                       # Number of instructions fetched each cycle (Total)
system.cpu0.fetch.rateDist::underflows              0      0.00%      0.00% # Number of instructions fetched each cycle (Total)
system.cpu0.fetch.rateDist::0                  101833     64.78%     64.78% # Number of instructions fetched each cycle (Total)
system.cpu0.fetch.rateDist::1                    1903      1.21%     65.99% # Number of instructions fetched each cycle (Total)
system.cpu0.fetch.rateDist::2                    2603      1.66%     67.64% # Number of instructions fetched each cycle (Total)
system.cpu0.fetch.rateDist::3                     775      0.49%     68.14% # Number of instructions fetched each cycle (Total)
system.cpu0.fetch.rateDist::4                    3110      1.98%     70.12% # Number of instructions fetched each cycle (Total)
system.cpu0.fetch.rateDist::5                     708      0.45%     70.57% # Number of instructions fetched each cycle (Total)
system.cpu0.fetch.rateDist::6                    2698      1.72%     72.28% # Number of instructions fetched each cycle (Total)
system.cpu0.fetch.rateDist::7                   17847     11.35%     83.63% # Number of instructions fetched each cycle (Total)
system.cpu0.fetch.rateDist::8                   25727     16.37%    100.00% # Number of instructions fetched each cycle (Total)
system.cpu0.fetch.rateDist::overflows               0      0.00%    100.00% # Number of instructions fetched each cycle (Total)
system.cpu0.fetch.rateDist::min_value               0                       # Number of instructions fetched each cycle (Total)
system.cpu0.fetch.rateDist::max_value               8                       # Number of instructions fetched each cycle (Total)
system.cpu0.fetch.rateDist::total              157204                       # Number of instructions fetched each cycle (Total)
system.cpu0.fetch.branchRate                 0.171068                       # Number of branch fetches per cycle
system.cpu0.fetch.rate                       1.852553                       # Number of inst fetches per cycle
system.cpu0.decode.IdleCycles                   54082                       # Number of cycles decode is idle
system.cpu0.decode.BlockedCycles                50784                       # Number of cycles decode is blocked
system.cpu0.decode.RunCycles                    46543                       # Number of cycles decode is running
system.cpu0.decode.UnblockCycles                 4595                       # Number of cycles decode is unblocking
system.cpu0.decode.SquashCycles                  1200                       # Number of cycles decode is squashing
system.cpu0.decode.BranchResolved                 957                       # Number of times decode resolved a branch
system.cpu0.decode.BranchMispred                  323                       # Number of times decode detected a branch misprediction
system.cpu0.decode.DecodedInsts                362455                       # Number of instructions handled by decode
system.cpu0.decode.SquashedInsts                 1163                       # Number of squashed instructions handled by decode
system.cpu0.rename.SquashCycles                  1200                       # Number of cycles rename is squashing
system.cpu0.rename.IdleCycles                   55996                       # Number of cycles rename is idle
system.cpu0.rename.BlockCycles                   4249                       # Number of cycles rename is blocking
system.cpu0.rename.serializeStallCycles          8200                       # count of cycles rename stalled for serializing inst
system.cpu0.rename.RunCycles                    49141                       # Number of cycles rename is running
system.cpu0.rename.UnblockCycles                38418                       # Number of cycles rename is unblocking
system.cpu0.rename.RenamedInsts                358248                       # Number of instructions processed by rename
system.cpu0.rename.ROBFullEvents                  134                       # Number of times rename has blocked due to ROB full
system.cpu0.rename.IQFullEvents                  1939                       # Number of times rename has blocked due to IQ full
system.cpu0.rename.LQFullEvents                   342                       # Number of times rename has blocked due to LQ full
system.cpu0.rename.SQFullEvents                 35228                       # Number of times rename has blocked due to SQ full
system.cpu0.rename.RenamedOperands             453598                       # Number of destination operands rename has renamed
system.cpu0.rename.RenameLookups              1769125                       # Number of register rename lookups that rename has made
system.cpu0.rename.int_rename_lookups          574200                       # Number of integer rename lookups
system.cpu0.rename.fp_rename_lookups               22                       # Number of floating rename lookups
system.cpu0.rename.CommittedMaps               419417                       # Number of HB maps that are committed
system.cpu0.rename.UndoneMaps                   34181                       # Number of HB maps that are undone due to squashing
system.cpu0.rename.serializingInsts               148                       # count of serializing insts renamed
system.cpu0.rename.tempSerializingInsts           147                       # count of temporary serializing insts renamed
system.cpu0.rename.skidInsts                    16525                       # count of insts added to the skid buffer
system.cpu0.memDep0.insertedLoads               75150                       # Number of loads inserted to the mem dependence unit.
system.cpu0.memDep0.insertedStores              23039                       # Number of stores inserted to the mem dependence unit.
system.cpu0.memDep0.conflictingLoads             1441                       # Number of conflicting loads.
system.cpu0.memDep0.conflictingStores             591                       # Number of conflicting stores.
system.cpu0.iq.iqInstsAdded                    351710                       # Number of instructions added to the IQ (excludes non-spec)
system.cpu0.iq.iqNonSpecInstsAdded                302                       # Number of non-speculative instructions added to the IQ
system.cpu0.iq.iqInstsIssued                   339350                       # Number of instructions issued
system.cpu0.iq.iqSquashedInstsIssued              966                       # Number of squashed instructions issued
system.cpu0.iq.iqSquashedInstsExamined          22723                       # Number of squashed instructions iterated over during squash; mainly for profiling
system.cpu0.iq.iqSquashedOperandsExamined        74542                       # Number of squashed operands that are examined and possibly removed from graph
system.cpu0.iq.iqSquashedNonSpecRemoved            90                       # Number of squashed non-spec instructions that were removed
system.cpu0.iq.issued_per_cycle::samples       157204                       # Number of insts issued each cycle
system.cpu0.iq.issued_per_cycle::mean        2.158660                       # Number of insts issued each cycle
system.cpu0.iq.issued_per_cycle::stdev       1.823627                       # Number of insts issued each cycle
system.cpu0.iq.issued_per_cycle::underflows            0      0.00%      0.00% # Number of insts issued each cycle
system.cpu0.iq.issued_per_cycle::0              59008     37.54%     37.54% # Number of insts issued each cycle
system.cpu0.iq.issued_per_cycle::1               7977      5.07%     42.61% # Number of insts issued each cycle
system.cpu0.iq.issued_per_cycle::2               5189      3.30%     45.91% # Number of insts issued each cycle
system.cpu0.iq.issued_per_cycle::3              19125     12.17%     58.08% # Number of insts issued each cycle
system.cpu0.iq.issued_per_cycle::4              65905     41.92%    100.00% # Number of insts issued each cycle
system.cpu0.iq.issued_per_cycle::overflows            0      0.00%    100.00% # Number of insts issued each cycle
system.cpu0.iq.issued_per_cycle::min_value            0                       # Number of insts issued each cycle
system.cpu0.iq.issued_per_cycle::max_value            4                       # Number of insts issued each cycle
system.cpu0.iq.issued_per_cycle::total         157204                       # Number of insts issued each cycle
system.cpu0.iq.fu_full::No_OpClass                  0      0.00%      0.00% # attempts to use FU when none available
system.cpu0.iq.fu_full::IntAlu                      0      0.00%      0.00% # attempts to use FU when none available
system.cpu0.iq.fu_full::IntMult                    16    100.00%    100.00% # attempts to use FU when none available
system.cpu0.iq.fu_full::IntDiv                      0      0.00%    100.00% # attempts to use FU when none available
system.cpu0.iq.fu_full::FloatAdd                    0      0.00%    100.00% # attempts to use FU when none available
system.cpu0.iq.fu_full::FloatCmp                    0      0.00%    100.00% # attempts to use FU when none available
system.cpu0.iq.fu_full::FloatCvt                    0      0.00%    100.00% # attempts to use FU when none available
system.cpu0.iq.fu_full::FloatMult                   0      0.00%    100.00% # attempts to use FU when none available
system.cpu0.iq.fu_full::FloatDiv                    0      0.00%    100.00% # attempts to use FU when none available
system.cpu0.iq.fu_full::FloatSqrt                   0      0.00%    100.00% # attempts to use FU when none available
system.cpu0.iq.fu_full::SimdAdd                     0      0.00%    100.00% # attempts to use FU when none available
system.cpu0.iq.fu_full::SimdAddAcc                  0      0.00%    100.00% # attempts to use FU when none available
system.cpu0.iq.fu_full::SimdAlu                     0      0.00%    100.00% # attempts to use FU when none available
system.cpu0.iq.fu_full::SimdCmp                     0      0.00%    100.00% # attempts to use FU when none available
system.cpu0.iq.fu_full::SimdCvt                     0      0.00%    100.00% # attempts to use FU when none available
system.cpu0.iq.fu_full::SimdMisc                    0      0.00%    100.00% # attempts to use FU when none available
system.cpu0.iq.fu_full::SimdMult                    0      0.00%    100.00% # attempts to use FU when none available
system.cpu0.iq.fu_full::SimdMultAcc                 0      0.00%    100.00% # attempts to use FU when none available
system.cpu0.iq.fu_full::SimdShift                   0      0.00%    100.00% # attempts to use FU when none available
system.cpu0.iq.fu_full::SimdShiftAcc                0      0.00%    100.00% # attempts to use FU when none available
system.cpu0.iq.fu_full::SimdSqrt                    0      0.00%    100.00% # attempts to use FU when none available
system.cpu0.iq.fu_full::SimdFloatAdd                0      0.00%    100.00% # attempts to use FU when none available
system.cpu0.iq.fu_full::SimdFloatAlu                0      0.00%    100.00% # attempts to use FU when none available
system.cpu0.iq.fu_full::SimdFloatCmp                0      0.00%    100.00% # attempts to use FU when none available
system.cpu0.iq.fu_full::SimdFloatCvt                0      0.00%    100.00% # attempts to use FU when none available
system.cpu0.iq.fu_full::SimdFloatDiv                0      0.00%    100.00% # attempts to use FU when none available
system.cpu0.iq.fu_full::SimdFloatMisc               0      0.00%    100.00% # attempts to use FU when none available
system.cpu0.iq.fu_full::SimdFloatMult               0      0.00%    100.00% # attempts to use FU when none available
system.cpu0.iq.fu_full::SimdFloatMultAcc            0      0.00%    100.00% # attempts to use FU when none available
system.cpu0.iq.fu_full::SimdFloatSqrt               0      0.00%    100.00% # attempts to use FU when none available
system.cpu0.iq.fu_full::MemRead                     0      0.00%    100.00% # attempts to use FU when none available
system.cpu0.iq.fu_full::MemWrite                    0      0.00%    100.00% # attempts to use FU when none available
system.cpu0.iq.fu_full::IprAccess                   0      0.00%    100.00% # attempts to use FU when none available
system.cpu0.iq.fu_full::InstPrefetch                0      0.00%    100.00% # attempts to use FU when none available
system.cpu0.iq.FU_type_0::No_OpClass                0      0.00%      0.00% # Type of FU issued
system.cpu0.iq.FU_type_0::IntAlu               192219     56.64%     56.64% # Type of FU issued
system.cpu0.iq.FU_type_0::IntMult               51354     15.13%     71.78% # Type of FU issued
system.cpu0.iq.FU_type_0::IntDiv                    0      0.00%     71.78% # Type of FU issued
system.cpu0.iq.FU_type_0::FloatAdd                  0      0.00%     71.78% # Type of FU issued
system.cpu0.iq.FU_type_0::FloatCmp                  0      0.00%     71.78% # Type of FU issued
system.cpu0.iq.FU_type_0::FloatCvt                  0      0.00%     71.78% # Type of FU issued
system.cpu0.iq.FU_type_0::FloatMult                 0      0.00%     71.78% # Type of FU issued
system.cpu0.iq.FU_type_0::FloatDiv                  0      0.00%     71.78% # Type of FU issued
system.cpu0.iq.FU_type_0::FloatSqrt                 0      0.00%     71.78% # Type of FU issued
system.cpu0.iq.FU_type_0::SimdAdd                   0      0.00%     71.78% # Type of FU issued
system.cpu0.iq.FU_type_0::SimdAddAcc                0      0.00%     71.78% # Type of FU issued
system.cpu0.iq.FU_type_0::SimdAlu                   0      0.00%     71.78% # Type of FU issued
system.cpu0.iq.FU_type_0::SimdCmp                   0      0.00%     71.78% # Type of FU issued
system.cpu0.iq.FU_type_0::SimdCvt                   0      0.00%     71.78% # Type of FU issued
system.cpu0.iq.FU_type_0::SimdMisc                  0      0.00%     71.78% # Type of FU issued
system.cpu0.iq.FU_type_0::SimdMult                  0      0.00%     71.78% # Type of FU issued
system.cpu0.iq.FU_type_0::SimdMultAcc               0      0.00%     71.78% # Type of FU issued
system.cpu0.iq.FU_type_0::SimdShift                 0      0.00%     71.78% # Type of FU issued
system.cpu0.iq.FU_type_0::SimdShiftAcc              0      0.00%     71.78% # Type of FU issued
system.cpu0.iq.FU_type_0::SimdSqrt                  0      0.00%     71.78% # Type of FU issued
system.cpu0.iq.FU_type_0::SimdFloatAdd              0      0.00%     71.78% # Type of FU issued
system.cpu0.iq.FU_type_0::SimdFloatAlu              0      0.00%     71.78% # Type of FU issued
system.cpu0.iq.FU_type_0::SimdFloatCmp              0      0.00%     71.78% # Type of FU issued
system.cpu0.iq.FU_type_0::SimdFloatCvt              0      0.00%     71.78% # Type of FU issued
system.cpu0.iq.FU_type_0::SimdFloatDiv              0      0.00%     71.78% # Type of FU issued
system.cpu0.iq.FU_type_0::SimdFloatMisc             3      0.00%     71.78% # Type of FU issued
system.cpu0.iq.FU_type_0::SimdFloatMult             0      0.00%     71.78% # Type of FU issued
system.cpu0.iq.FU_type_0::SimdFloatMultAcc            0      0.00%     71.78% # Type of FU issued
system.cpu0.iq.FU_type_0::SimdFloatSqrt             0      0.00%     71.78% # Type of FU issued
system.cpu0.iq.FU_type_0::MemRead               73960     21.79%     93.57% # Type of FU issued
system.cpu0.iq.FU_type_0::MemWrite              21814      6.43%    100.00% # Type of FU issued
system.cpu0.iq.FU_type_0::IprAccess                 0      0.00%    100.00% # Type of FU issued
system.cpu0.iq.FU_type_0::InstPrefetch              0      0.00%    100.00% # Type of FU issued
system.cpu0.iq.FU_type_0::total                339350                       # Type of FU issued
system.cpu0.iq.rate                          1.773007                       # Inst issue rate
system.cpu0.iq.fu_busy_cnt                         16                       # FU busy when requested
system.cpu0.iq.fu_busy_rate                  0.000047                       # FU busy rate (busy events/executed inst)
system.cpu0.iq.int_inst_queue_reads            836830                       # Number of integer instruction queue reads
system.cpu0.iq.int_inst_queue_writes           374760                       # Number of integer instruction queue writes
system.cpu0.iq.int_inst_queue_wakeup_accesses       335865                       # Number of integer instruction queue wakeup accesses
system.cpu0.iq.fp_inst_queue_reads                 56                       # Number of floating instruction queue reads
system.cpu0.iq.fp_inst_queue_writes                28                       # Number of floating instruction queue writes
system.cpu0.iq.fp_inst_queue_wakeup_accesses           28                       # Number of floating instruction queue wakeup accesses
system.cpu0.iq.int_alu_accesses                339338                       # Number of integer alu accesses
system.cpu0.iq.fp_alu_accesses                     28                       # Number of floating point alu accesses
system.cpu0.iew.lsq.thread0.forwLoads             115                       # Number of loads that had data forwarded from stores
system.cpu0.iew.lsq.thread0.invAddrLoads            0                       # Number of loads ignored due to an invalid address
system.cpu0.iew.lsq.thread0.squashedLoads         4942                       # Number of loads squashed
system.cpu0.iew.lsq.thread0.ignoredResponses            3                       # Number of memory responses ignored because the instruction is squashed
system.cpu0.iew.lsq.thread0.memOrderViolation           54                       # Number of memory ordering violations
system.cpu0.iew.lsq.thread0.squashedStores         1824                       # Number of stores squashed
system.cpu0.iew.lsq.thread0.invAddrSwpfs            0                       # Number of software prefetches ignored due to an invalid address
system.cpu0.iew.lsq.thread0.blockedLoads            0                       # Number of blocked loads due to partial load-store forwarding
system.cpu0.iew.lsq.thread0.rescheduledLoads          119                       # Number of loads that were rescheduled
system.cpu0.iew.lsq.thread0.cacheBlocked           55                       # Number of times an access to memory failed due to the cache being blocked
system.cpu0.iew.iewIdleCycles                       0                       # Number of cycles IEW is idle
system.cpu0.iew.iewSquashCycles                  1200                       # Number of cycles IEW is squashing
system.cpu0.iew.iewBlockCycles                   2793                       # Number of cycles IEW is blocking
system.cpu0.iew.iewUnblockCycles                 1271                       # Number of cycles IEW is unblocking
system.cpu0.iew.iewDispatchedInsts             352020                       # Number of instructions dispatched to IQ
system.cpu0.iew.iewDispSquashedInsts              213                       # Number of squashed instructions skipped by dispatch
system.cpu0.iew.iewDispLoadInsts                75150                       # Number of dispatched load instructions
system.cpu0.iew.iewDispStoreInsts               23039                       # Number of dispatched store instructions
system.cpu0.iew.iewDispNonSpecInsts               139                       # Number of dispatched non-speculative instructions
system.cpu0.iew.iewIQFullEvents                    26                       # Number of times the IQ has become full, causing a stall
system.cpu0.iew.iewLSQFullEvents                 1233                       # Number of times the LSQ has become full, causing a stall
system.cpu0.iew.memOrderViolationEvents            54                       # Number of memory order violations
system.cpu0.iew.predictedTakenIncorrect           628                       # Number of branches that were predicted taken incorrectly
system.cpu0.iew.predictedNotTakenIncorrect          557                       # Number of branches that were predicted not taken incorrectly
system.cpu0.iew.branchMispredicts                1185                       # Number of branch mispredicts detected at execute
system.cpu0.iew.iewExecutedInsts               337737                       # Number of executed instructions
system.cpu0.iew.iewExecLoadInsts                72963                       # Number of load instructions executed
system.cpu0.iew.iewExecSquashedInsts             1613                       # Number of squashed instructions skipped in execute
system.cpu0.iew.exec_swp                            0                       # number of swp insts executed
system.cpu0.iew.exec_nop                            8                       # number of nop insts executed
system.cpu0.iew.exec_refs                       94604                       # number of memory reference insts executed
system.cpu0.iew.exec_branches                   27691                       # Number of branches executed
system.cpu0.iew.exec_stores                     21641                       # Number of stores executed
system.cpu0.iew.exec_rate                    1.764580                       # Inst execution rate
system.cpu0.iew.wb_sent                        336553                       # cumulative count of insts sent to commit
system.cpu0.iew.wb_count                       335893                       # cumulative count of insts written-back
system.cpu0.iew.wb_producers                   262559                       # num instructions producing a value
system.cpu0.iew.wb_consumers                   461136                       # num instructions consuming a value
system.cpu0.iew.wb_penalized                        0                       # number of instrctions required to write to 'other' IQ
system.cpu0.iew.wb_rate                      1.754945                       # insts written-back per cycle
system.cpu0.iew.wb_fanout                    0.569374                       # average fanout of values written-back
system.cpu0.iew.wb_penalized_rate                   0                       # fraction of instructions written-back that wrote to 'other' IQ
system.cpu0.commit.commitSquashedInsts          22734                       # The number of squashed insts skipped by commit
system.cpu0.commit.commitNonSpecStalls            212                       # The number of times commit has been forced to stall to communicate backwards
system.cpu0.commit.branchMispredicts             1131                       # The number of times a branch was mispredicted
system.cpu0.commit.committed_per_cycle::samples       153861                       # Number of insts commited each cycle
system.cpu0.commit.committed_per_cycle::mean     2.140172                       # Number of insts commited each cycle
system.cpu0.commit.committed_per_cycle::stdev     2.742016                       # Number of insts commited each cycle
system.cpu0.commit.committed_per_cycle::underflows            0      0.00%      0.00% # Number of insts commited each cycle
system.cpu0.commit.committed_per_cycle::0        63040     40.97%     40.97% # Number of insts commited each cycle
system.cpu0.commit.committed_per_cycle::1        37186     24.17%     65.14% # Number of insts commited each cycle
system.cpu0.commit.committed_per_cycle::2         6998      4.55%     69.69% # Number of insts commited each cycle
system.cpu0.commit.committed_per_cycle::3         3282      2.13%     71.82% # Number of insts commited each cycle
system.cpu0.commit.committed_per_cycle::4         5555      3.61%     75.43% # Number of insts commited each cycle
system.cpu0.commit.committed_per_cycle::5        16512     10.73%     86.16% # Number of insts commited each cycle
system.cpu0.commit.committed_per_cycle::6         2536      1.65%     87.81% # Number of insts commited each cycle
system.cpu0.commit.committed_per_cycle::7         1751      1.14%     88.95% # Number of insts commited each cycle
system.cpu0.commit.committed_per_cycle::8        17001     11.05%    100.00% # Number of insts commited each cycle
system.cpu0.commit.committed_per_cycle::overflows            0      0.00%    100.00% # Number of insts commited each cycle
system.cpu0.commit.committed_per_cycle::min_value            0                       # Number of insts commited each cycle
system.cpu0.commit.committed_per_cycle::max_value            8                       # Number of insts commited each cycle
system.cpu0.commit.committed_per_cycle::total       153861                       # Number of insts commited each cycle
system.cpu0.commit.committedInsts              315120                       # Number of instructions committed
system.cpu0.commit.committedOps                329289                       # Number of ops (including micro ops) committed
system.cpu0.commit.swp_count                        0                       # Number of s/w prefetches committed
system.cpu0.commit.refs                         91423                       # Number of memory references committed
system.cpu0.commit.loads                        70208                       # Number of loads committed
system.cpu0.commit.membars                        125                       # Number of memory barriers committed
system.cpu0.commit.branches                     26759                       # Number of branches committed
system.cpu0.commit.fp_insts                        28                       # Number of committed floating point instructions.
system.cpu0.commit.int_insts                   303091                       # Number of committed integer instructions.
system.cpu0.commit.function_calls                 325                       # Number of function calls committed.
system.cpu0.commit.op_class_0::No_OpClass            0      0.00%      0.00% # Class of committed instruction
system.cpu0.commit.op_class_0::IntAlu          186637     56.68%     56.68% # Class of committed instruction
system.cpu0.commit.op_class_0::IntMult          51226     15.56%     72.24% # Class of committed instruction
system.cpu0.commit.op_class_0::IntDiv               0      0.00%     72.24% # Class of committed instruction
system.cpu0.commit.op_class_0::FloatAdd             0      0.00%     72.24% # Class of committed instruction
system.cpu0.commit.op_class_0::FloatCmp             0      0.00%     72.24% # Class of committed instruction
system.cpu0.commit.op_class_0::FloatCvt             0      0.00%     72.24% # Class of committed instruction
[...]
system.cpu3.dcache.SoftPFReq_avg_mshr_miss_latency::total        68625                       # average SoftPFReq mshr miss latency
system.cpu3.dcache.LoadLockedReq_avg_mshr_miss_latency::cpu3.data 10499.666667                       # average LoadLockedReq mshr miss latency
system.cpu3.dcache.LoadLockedReq_avg_mshr_miss_latency::total 10499.666667                       # average LoadLockedReq mshr miss latency
system.cpu3.dcache.StoreCondReq_avg_mshr_miss_latency::cpu3.data         7250                       # average StoreCondReq mshr miss latency
system.cpu3.dcache.StoreCondReq_avg_mshr_miss_latency::total         7250                       # average StoreCondReq mshr miss latency
system.cpu3.dcache.StoreCondFailReq_avg_mshr_miss_latency::cpu3.data          inf                       # average StoreCondFailReq mshr miss latency
system.cpu3.dcache.StoreCondFailReq_avg_mshr_miss_latency::total          inf                       # average StoreCondFailReq mshr miss latency
system.cpu3.dcache.demand_avg_mshr_miss_latency::cpu3.data 17982.524781                       # average overall mshr miss latency
system.cpu3.dcache.demand_avg_mshr_miss_latency::total 17982.524781                       # average overall mshr miss latency
system.cpu3.dcache.overall_avg_mshr_miss_latency::cpu3.data 18276.104348                       # average overall mshr miss latency
system.cpu3.dcache.overall_avg_mshr_miss_latency::total 18276.104348                       # average overall mshr miss latency
system.cpu3.dcache.no_allocate_misses               0                       # Number of misses that were no-allocate
system.cpu3.icache.tags.replacements                0                       # number of replacements
system.cpu3.icache.tags.tagsinuse           18.201824                       # Cycle average of tags in use
system.cpu3.icache.tags.total_refs              35218                       # Total number of references to valid blocks.
system.cpu3.icache.tags.sampled_refs               50                       # Sample count of references to valid blocks.
system.cpu3.icache.tags.avg_refs           704.360000                       # Average number of references to valid blocks.
system.cpu3.icache.tags.warmup_cycle                0                       # Cycle when the warmup percentage was hit.
system.cpu3.icache.tags.occ_blocks::cpu3.inst    18.201824                       # Average occupied blocks per requestor
system.cpu3.icache.tags.occ_percent::cpu3.inst     0.035550                       # Average percentage of cache occupancy
system.cpu3.icache.tags.occ_percent::total     0.035550                       # Average percentage of cache occupancy
system.cpu3.icache.tags.occ_task_id_blocks::1024           50                       # Occupied blocks per task id
system.cpu3.icache.tags.age_task_id_blocks_1024::0            8                       # Occupied blocks per task id
system.cpu3.icache.tags.age_task_id_blocks_1024::1           42                       # Occupied blocks per task id
system.cpu3.icache.tags.occ_task_id_percent::1024     0.097656                       # Percentage of cache occupancy per task id
system.cpu3.icache.tags.tag_accesses            70624                       # Number of tag accesses
system.cpu3.icache.tags.data_accesses           70624                       # Number of data accesses
system.cpu3.icache.ReadReq_hits::cpu3.inst        35218                       # number of ReadReq hits
system.cpu3.icache.ReadReq_hits::total          35218                       # number of ReadReq hits
system.cpu3.icache.demand_hits::cpu3.inst        35218                       # number of demand (read+write) hits
system.cpu3.icache.demand_hits::total           35218                       # number of demand (read+write) hits
system.cpu3.icache.overall_hits::cpu3.inst        35218                       # number of overall hits
system.cpu3.icache.overall_hits::total          35218                       # number of overall hits
system.cpu3.icache.ReadReq_misses::cpu3.inst           69                       # number of ReadReq misses
system.cpu3.icache.ReadReq_misses::total           69                       # number of ReadReq misses
system.cpu3.icache.demand_misses::cpu3.inst           69                       # number of demand (read+write) misses
system.cpu3.icache.demand_misses::total            69                       # number of demand (read+write) misses
system.cpu3.icache.overall_misses::cpu3.inst           69                       # number of overall misses
system.cpu3.icache.overall_misses::total           69                       # number of overall misses
system.cpu3.icache.ReadReq_miss_latency::cpu3.inst      4575250                       # number of ReadReq miss cycles
system.cpu3.icache.ReadReq_miss_latency::total      4575250                       # number of ReadReq miss cycles
system.cpu3.icache.demand_miss_latency::cpu3.inst      4575250                       # number of demand (read+write) miss cycles
system.cpu3.icache.demand_miss_latency::total      4575250                       # number of demand (read+write) miss cycles
system.cpu3.icache.overall_miss_latency::cpu3.inst      4575250                       # number of overall miss cycles
system.cpu3.icache.overall_miss_latency::total      4575250                       # number of overall miss cycles
system.cpu3.icache.ReadReq_accesses::cpu3.inst        35287                       # number of ReadReq accesses(hits+misses)
system.cpu3.icache.ReadReq_accesses::total        35287                       # number of ReadReq accesses(hits+misses)
system.cpu3.icache.demand_accesses::cpu3.inst        35287                       # number of demand (read+write) accesses
system.cpu3.icache.demand_accesses::total        35287                       # number of demand (read+write) accesses
system.cpu3.icache.overall_accesses::cpu3.inst        35287                       # number of overall (read+write) accesses
system.cpu3.icache.overall_accesses::total        35287                       # number of overall (read+write) accesses
system.cpu3.icache.ReadReq_miss_rate::cpu3.inst     0.001955                       # miss rate for ReadReq accesses
system.cpu3.icache.ReadReq_miss_rate::total     0.001955                       # miss rate for ReadReq accesses
system.cpu3.icache.demand_miss_rate::cpu3.inst     0.001955                       # miss rate for demand accesses
system.cpu3.icache.demand_miss_rate::total     0.001955                       # miss rate for demand accesses
system.cpu3.icache.overall_miss_rate::cpu3.inst     0.001955                       # miss rate for overall accesses
system.cpu3.icache.overall_miss_rate::total     0.001955                       # miss rate for overall accesses
system.cpu3.icache.ReadReq_avg_miss_latency::cpu3.inst 66307.971014                       # average ReadReq miss latency
system.cpu3.icache.ReadReq_avg_miss_latency::total 66307.971014                       # average ReadReq miss latency
system.cpu3.icache.demand_avg_miss_latency::cpu3.inst 66307.971014                       # average overall miss latency
system.cpu3.icache.demand_avg_miss_latency::total 66307.971014                       # average overall miss latency
system.cpu3.icache.overall_avg_miss_latency::cpu3.inst 66307.971014                       # average overall miss latency
system.cpu3.icache.overall_avg_miss_latency::total 66307.971014                       # average overall miss latency
system.cpu3.icache.blocked_cycles::no_mshrs           66                       # number of cycles access was blocked
system.cpu3.icache.blocked_cycles::no_targets            0                       # number of cycles access was blocked
system.cpu3.icache.blocked::no_mshrs                1                       # number of cycles access was blocked
system.cpu3.icache.blocked::no_targets              0                       # number of cycles access was blocked
system.cpu3.icache.avg_blocked_cycles::no_mshrs           66                       # average number of cycles each access was blocked
system.cpu3.icache.avg_blocked_cycles::no_targets          nan                       # average number of cycles each access was blocked
system.cpu3.icache.fast_writes                      0                       # number of fast writes performed
system.cpu3.icache.cache_copies                     0                       # number of cache copies performed
system.cpu3.icache.ReadReq_mshr_hits::cpu3.inst           19                       # number of ReadReq MSHR hits
system.cpu3.icache.ReadReq_mshr_hits::total           19                       # number of ReadReq MSHR hits
system.cpu3.icache.demand_mshr_hits::cpu3.inst           19                       # number of demand (read+write) MSHR hits
system.cpu3.icache.demand_mshr_hits::total           19                       # number of demand (read+write) MSHR hits
system.cpu3.icache.overall_mshr_hits::cpu3.inst           19                       # number of overall MSHR hits
system.cpu3.icache.overall_mshr_hits::total           19                       # number of overall MSHR hits
system.cpu3.icache.ReadReq_mshr_misses::cpu3.inst           50                       # number of ReadReq MSHR misses
system.cpu3.icache.ReadReq_mshr_misses::total           50                       # number of ReadReq MSHR misses
system.cpu3.icache.demand_mshr_misses::cpu3.inst           50                       # number of demand (read+write) MSHR misses
system.cpu3.icache.demand_mshr_misses::total           50                       # number of demand (read+write) MSHR misses
system.cpu3.icache.overall_mshr_misses::cpu3.inst           50                       # number of overall MSHR misses
system.cpu3.icache.overall_mshr_misses::total           50                       # number of overall MSHR misses
system.cpu3.icache.ReadReq_mshr_miss_latency::cpu3.inst      3506250                       # number of ReadReq MSHR miss cycles
system.cpu3.icache.ReadReq_mshr_miss_latency::total      3506250                       # number of ReadReq MSHR miss cycles
system.cpu3.icache.demand_mshr_miss_latency::cpu3.inst      3506250                       # number of demand (read+write) MSHR miss cycles
system.cpu3.icache.demand_mshr_miss_latency::total      3506250                       # number of demand (read+write) MSHR miss cycles
system.cpu3.icache.overall_mshr_miss_latency::cpu3.inst      3506250                       # number of overall MSHR miss cycles
system.cpu3.icache.overall_mshr_miss_latency::total      3506250                       # number of overall MSHR miss cycles
system.cpu3.icache.ReadReq_mshr_miss_rate::cpu3.inst     0.001417                       # mshr miss rate for ReadReq accesses
system.cpu3.icache.ReadReq_mshr_miss_rate::total     0.001417                       # mshr miss rate for ReadReq accesses
system.cpu3.icache.demand_mshr_miss_rate::cpu3.inst     0.001417                       # mshr miss rate for demand accesses
system.cpu3.icache.demand_mshr_miss_rate::total     0.001417                       # mshr miss rate for demand accesses
system.cpu3.icache.overall_mshr_miss_rate::cpu3.inst     0.001417                       # mshr miss rate for overall accesses
system.cpu3.icache.overall_mshr_miss_rate::total     0.001417                       # mshr miss rate for overall accesses
system.cpu3.icache.ReadReq_avg_mshr_miss_latency::cpu3.inst        70125                       # average ReadReq mshr miss latency
system.cpu3.icache.ReadReq_avg_mshr_miss_latency::total        70125                       # average ReadReq mshr miss latency
system.cpu3.icache.demand_avg_mshr_miss_latency::cpu3.inst        70125                       # average overall mshr miss latency
system.cpu3.icache.demand_avg_mshr_miss_latency::total        70125                       # average overall mshr miss latency
system.cpu3.icache.overall_avg_mshr_miss_latency::cpu3.inst        70125                       # average overall mshr miss latency
system.cpu3.icache.overall_avg_mshr_miss_latency::total        70125                       # average overall mshr miss latency
system.cpu3.icache.no_allocate_misses               0                       # Number of misses that were no-allocate
system.membus.trans_dist::ReadReq                1830                       # Transaction distribution
system.membus.trans_dist::ReadResp               1829                       # Transaction distribution
system.membus.trans_dist::Writeback                90                       # Transaction distribution
system.membus.trans_dist::UpgradeReq               11                       # Transaction distribution
system.membus.trans_dist::SCUpgradeReq             10                       # Transaction distribution
system.membus.trans_dist::UpgradeResp              21                       # Transaction distribution
system.membus.trans_dist::SCUpgradeFailReq            1                       # Transaction distribution
system.membus.trans_dist::UpgradeFailResp            1                       # Transaction distribution
system.membus.trans_dist::ReadExReq               930                       # Transaction distribution
system.membus.trans_dist::ReadExResp              930                       # Transaction distribution
system.membus.pkt_count_system.cpu0.icache.mem_side::system.mem_ctrls.port         1223                       # Packet count per connected master and slave (bytes)
system.membus.pkt_count_system.cpu0.dcache.mem_side::system.mem_ctrls.port         2001                       # Packet count per connected master and slave (bytes)
system.membus.pkt_count_system.cpu1.icache.mem_side::system.mem_ctrls.port          106                       # Packet count per connected master and slave (bytes)
system.membus.pkt_count_system.cpu1.dcache.mem_side::system.mem_ctrls.port          377                       # Packet count per connected master and slave (bytes)
system.membus.pkt_count_system.cpu2.icache.mem_side::system.mem_ctrls.port          112                       # Packet count per connected master and slave (bytes)
system.membus.pkt_count_system.cpu2.dcache.mem_side::system.mem_ctrls.port          388                       # Packet count per connected master and slave (bytes)
system.membus.pkt_count_system.cpu3.icache.mem_side::system.mem_ctrls.port          100                       # Packet count per connected master and slave (bytes)
system.membus.pkt_count_system.cpu3.dcache.mem_side::system.mem_ctrls.port          383                       # Packet count per connected master and slave (bytes)
system.membus.pkt_count::total                   4690                       # Packet count per connected master and slave (bytes)
system.membus.pkt_size_system.cpu0.icache.mem_side::system.mem_ctrls.port        39104                       # Cumulative packet size per connected master and slave (bytes)
system.membus.pkt_size_system.cpu0.dcache.mem_side::system.mem_ctrls.port        66368                       # Cumulative packet size per connected master and slave (bytes)
system.membus.pkt_size_system.cpu1.icache.mem_side::system.mem_ctrls.port         3392                       # Cumulative packet size per connected master and slave (bytes)
system.membus.pkt_size_system.cpu1.dcache.mem_side::system.mem_ctrls.port         1600                       # Cumulative packet size per connected master and slave (bytes)
system.membus.pkt_size_system.cpu2.icache.mem_side::system.mem_ctrls.port         3584                       # Cumulative packet size per connected master and slave (bytes)
system.membus.pkt_size_system.cpu2.dcache.mem_side::system.mem_ctrls.port         2432                       # Cumulative packet size per connected master and slave (bytes)
system.membus.pkt_size_system.cpu3.icache.mem_side::system.mem_ctrls.port         3200                       # Cumulative packet size per connected master and slave (bytes)
system.membus.pkt_size_system.cpu3.dcache.mem_side::system.mem_ctrls.port         1984                       # Cumulative packet size per connected master and slave (bytes)
system.membus.pkt_size::total                  121664                       # Cumulative packet size per connected master and slave (bytes)
system.membus.snoops                              963                       # Total snoops (count)
system.membus.snoop_fanout::samples              2872                       # Request fanout histogram
system.membus.snoop_fanout::mean                    7                       # Request fanout histogram
system.membus.snoop_fanout::stdev                   0                       # Request fanout histogram
system.membus.snoop_fanout::underflows              0      0.00%      0.00% # Request fanout histogram
system.membus.snoop_fanout::0                       0      0.00%      0.00% # Request fanout histogram
system.membus.snoop_fanout::1                       0      0.00%      0.00% # Request fanout histogram
system.membus.snoop_fanout::2                       0      0.00%      0.00% # Request fanout histogram
system.membus.snoop_fanout::3                       0      0.00%      0.00% # Request fanout histogram
system.membus.snoop_fanout::4                       0      0.00%      0.00% # Request fanout histogram
system.membus.snoop_fanout::5                       0      0.00%      0.00% # Request fanout histogram
system.membus.snoop_fanout::6                       0      0.00%      0.00% # Request fanout histogram
system.membus.snoop_fanout::7                    2872    100.00%    100.00% # Request fanout histogram
system.membus.snoop_fanout::8                       0      0.00%    100.00% # Request fanout histogram
system.membus.snoop_fanout::overflows               0      0.00%    100.00% # Request fanout histogram
system.membus.snoop_fanout::min_value               7                       # Request fanout histogram
system.membus.snoop_fanout::max_value               7                       # Request fanout histogram
system.membus.snoop_fanout::total                2872                       # Request fanout histogram
system.membus.reqLayer0.occupancy             4010495                       # Layer occupancy (ticks)
system.membus.reqLayer0.utilization               4.2                       # Layer utilization (%)
system.membus.respLayer1.occupancy            3251000                       # Layer occupancy (ticks)
system.membus.respLayer1.utilization              3.4                       # Layer utilization (%)
system.membus.respLayer2.occupancy            5038245                       # Layer occupancy (ticks)
system.membus.respLayer2.utilization              5.3                       # Layer utilization (%)
system.membus.respLayer5.occupancy             284250                       # Layer occupancy (ticks)
system.membus.respLayer5.utilization              0.3                       # Layer utilization (%)
system.membus.respLayer6.occupancy            1786467                       # Layer occupancy (ticks)
system.membus.respLayer6.utilization              1.9                       # Layer utilization (%)
system.membus.respLayer9.occupancy             298000                       # Layer occupancy (ticks)
system.membus.respLayer9.utilization              0.3                       # Layer utilization (%)
system.membus.respLayer10.occupancy           1785208                       # Layer occupancy (ticks)
system.membus.respLayer10.utilization             1.9                       # Layer utilization (%)
system.membus.respLayer13.occupancy            264250                       # Layer occupancy (ticks)
system.membus.respLayer13.utilization             0.3                       # Layer utilization (%)
system.membus.respLayer14.occupancy           1749246                       # Layer occupancy (ticks)
system.membus.respLayer14.utilization             1.8                       # Layer utilization (%)

---------- End Simulation Statistics   ----------
