
---------- Begin Simulation Statistics ----------
sim_seconds                                  0.000119                       # Number of seconds simulated
sim_ticks                                   119383500                       # Number of ticks simulated
final_tick                                  119383500                       # Number of ticks from beginning of simulation (restored from checkpoints and never reset)
sim_freq                                 1000000000000                       # Frequency of simulated ticks
host_inst_rate                                 147076                       # Simulator instruction rate (inst/s)
host_op_rate                                   149554                       # Simulator op (including micro ops) rate (op/s)
host_tick_rate                               15316721                       # Simulator tick rate (ticks/s)
host_mem_usage                                 665632                       # Number of bytes of host memory used
host_seconds                                     7.79                       # Real time elapsed on the host
sim_insts                                     1146351                       # Number of instructions simulated
sim_ops                                       1165673                       # Number of ops (including micro ops) simulated
system.voltage_domain.voltage                       1                       # Voltage in Volts
system.clk_domain.clock                          1000                       # Clock period in ticks
system.mem_ctrls.bytes_read::cpu0.inst          40000                       # Number of bytes read from this memory
system.mem_ctrls.bytes_read::cpu0.data          60864                       # Number of bytes read from this memory
system.mem_ctrls.bytes_read::cpu1.inst           3200                       # Number of bytes read from this memory
system.mem_ctrls.bytes_read::cpu1.data           1280                       # Number of bytes read from this memory
system.mem_ctrls.bytes_read::cpu2.inst           3328                       # Number of bytes read from this memory
system.mem_ctrls.bytes_read::cpu2.data           1280                       # Number of bytes read from this memory
system.mem_ctrls.bytes_read::cpu3.inst           3392                       # Number of bytes read from this memory
system.mem_ctrls.bytes_read::cpu3.data           1408                       # Number of bytes read from this memory
system.mem_ctrls.bytes_read::cpu4.inst           3200                       # Number of bytes read from this memory
system.mem_ctrls.bytes_read::cpu4.data           1984                       # Number of bytes read from this memory
system.mem_ctrls.bytes_read::cpu5.inst           3456                       # Number of bytes read from this memory
system.mem_ctrls.bytes_read::cpu5.data           1536                       # Number of bytes read from this memory
system.mem_ctrls.bytes_read::cpu6.inst           3520                       # Number of bytes read from this memory
system.mem_ctrls.bytes_read::cpu6.data           1536                       # Number of bytes read from this memory
system.mem_ctrls.bytes_read::cpu7.inst           3392                       # Number of bytes read from this memory
system.mem_ctrls.bytes_read::cpu7.data           1536                       # Number of bytes read from this memory
system.mem_ctrls.bytes_read::total             134912                       # Number of bytes read from this memory
system.mem_ctrls.bytes_inst_read::cpu0.inst        40000                       # Number of instructions bytes read from this memory
system.mem_ctrls.bytes_inst_read::cpu1.inst         3200                       # Number of instructions bytes read from this memory
system.mem_ctrls.bytes_inst_read::cpu2.inst         3328                       # Number of instructions bytes read from this memory
system.mem_ctrls.bytes_inst_read::cpu3.inst         3392                       # Number of instructions bytes read from this memory
system.mem_ctrls.bytes_inst_read::cpu4.inst         3200                       # Number of instructions bytes read from this memory
system.mem_ctrls.bytes_inst_read::cpu5.inst         3456                       # Number of instructions bytes read from this memory
system.mem_ctrls.bytes_inst_read::cpu6.inst         3520                       # Number of instructions bytes read from this memory
system.mem_ctrls.bytes_inst_read::cpu7.inst         3392                       # Number of instructions bytes read from this memory
system.mem_ctrls.bytes_inst_read::total         63488                       # Number of instructions bytes read from this memory
system.mem_ctrls.bytes_written::writebacks         5952                       # Number of bytes written to this memory
system.mem_ctrls.bytes_written::total            5952                       # Number of bytes written to this memory
system.mem_ctrls.num_reads::cpu0.inst             625                       # Number of read requests responded to by this memory
system.mem_ctrls.num_reads::cpu0.data             951                       # Number of read requests responded to by this memory
system.mem_ctrls.num_reads::cpu1.inst              50                       # Number of read requests responded to by this memory
system.mem_ctrls.num_reads::cpu1.data              20                       # Number of read requests responded to by this memory
system.mem_ctrls.num_reads::cpu2.inst              52                       # Number of read requests responded to by this memory
system.mem_ctrls.num_reads::cpu2.data              20                       # Number of read requests responded to by this memory
system.mem_ctrls.num_reads::cpu3.inst              53                       # Number of read requests responded to by this memory
system.mem_ctrls.num_reads::cpu3.data              22                       # Number of read requests responded to by this memory
system.mem_ctrls.num_reads::cpu4.inst              50                       # Number of read requests responded to by this memory
system.mem_ctrls.num_reads::cpu4.data              31                       # Number of read requests responded to by this memory
system.mem_ctrls.num_reads::cpu5.inst              54                       # Number of read requests responded to by this memory
system.mem_ctrls.num_reads::cpu5.data              24                       # Number of read requests responded to by this memory
system.mem_ctrls.num_reads::cpu6.inst              55                       # Number of read requests responded to by this memory
system.mem_ctrls.num_reads::cpu6.data              24                       # Number of read requests responded to by this memory
system.mem_ctrls.num_reads::cpu7.inst              53                       # Number of read requests responded to by this memory
system.mem_ctrls.num_reads::cpu7.data              24                       # Number of read requests responded to by this memory
system.mem_ctrls.num_reads::total                2108                       # Number of read requests responded to by this memory
system.mem_ctrls.num_writes::writebacks            93                       # Number of write requests responded to by this memory
system.mem_ctrls.num_writes::total                 93                       # Number of write requests responded to by this memory
system.mem_ctrls.bw_read::cpu0.inst         335054677                       # Total read bandwidth from this memory (bytes/s)
system.mem_ctrls.bw_read::cpu0.data         509819196                       # Total read bandwidth from this memory (bytes/s)
system.mem_ctrls.bw_read::cpu1.inst          26804374                       # Total read bandwidth from this memory (bytes/s)
system.mem_ctrls.bw_read::cpu1.data          10721750                       # Total read bandwidth from this memory (bytes/s)
system.mem_ctrls.bw_read::cpu2.inst          27876549                       # Total read bandwidth from this memory (bytes/s)
system.mem_ctrls.bw_read::cpu2.data          10721750                       # Total read bandwidth from this memory (bytes/s)
system.mem_ctrls.bw_read::cpu3.inst          28412637                       # Total read bandwidth from this memory (bytes/s)
system.mem_ctrls.bw_read::cpu3.data          11793925                       # Total read bandwidth from this memory (bytes/s)
system.mem_ctrls.bw_read::cpu4.inst          26804374                       # Total read bandwidth from this memory (bytes/s)
system.mem_ctrls.bw_read::cpu4.data          16618712                       # Total read bandwidth from this memory (bytes/s)
system.mem_ctrls.bw_read::cpu5.inst          28948724                       # Total read bandwidth from this memory (bytes/s)
system.mem_ctrls.bw_read::cpu5.data          12866100                       # Total read bandwidth from this memory (bytes/s)
system.mem_ctrls.bw_read::cpu6.inst          29484812                       # Total read bandwidth from this memory (bytes/s)
system.mem_ctrls.bw_read::cpu6.data          12866100                       # Total read bandwidth from this memory (bytes/s)
system.mem_ctrls.bw_read::cpu7.inst          28412637                       # Total read bandwidth from this memory (bytes/s)
system.mem_ctrls.bw_read::cpu7.data          12866100                       # Total read bandwidth from this memory (bytes/s)
system.mem_ctrls.bw_read::total            1130072414                       # Total read bandwidth from this memory (bytes/s)
system.mem_ctrls.bw_inst_read::cpu0.inst    335054677                       # Instruction read bandwidth from this memory (bytes/s)
system.mem_ctrls.bw_inst_read::cpu1.inst     26804374                       # Instruction read bandwidth from this memory (bytes/s)
system.mem_ctrls.bw_inst_read::cpu2.inst     27876549                       # Instruction read bandwidth from this memory (bytes/s)
system.mem_ctrls.bw_inst_read::cpu3.inst     28412637                       # Instruction read bandwidth from this memory (bytes/s)
system.mem_ctrls.bw_inst_read::cpu4.inst     26804374                       # Instruction read bandwidth from this memory (bytes/s)
system.mem_ctrls.bw_inst_read::cpu5.inst     28948724                       # Instruction read bandwidth from this memory (bytes/s)
system.mem_ctrls.bw_inst_read::cpu6.inst     29484812                       # Instruction read bandwidth from this memory (bytes/s)
system.mem_ctrls.bw_inst_read::cpu7.inst     28412637                       # Instruction read bandwidth from this memory (bytes/s)
system.mem_ctrls.bw_inst_read::total        531798783                       # Instruction read bandwidth from this memory (bytes/s)
system.mem_ctrls.bw_write::writebacks        49856136                       # Write bandwidth from this memory (bytes/s)
system.mem_ctrls.bw_write::total             49856136                       # Write bandwidth from this memory (bytes/s)
system.mem_ctrls.bw_total::writebacks        49856136                       # Total bandwidth to/from this memory (bytes/s)
system.mem_ctrls.bw_total::cpu0.inst        335054677                       # Total bandwidth to/from this memory (bytes/s)
system.mem_ctrls.bw_total::cpu0.data        509819196                       # Total bandwidth to/from this memory (bytes/s)
system.mem_ctrls.bw_total::cpu1.inst         26804374                       # Total bandwidth to/from this memory (bytes/s)
system.mem_ctrls.bw_total::cpu1.data         10721750                       # Total bandwidth to/from this memory (bytes/s)
system.mem_ctrls.bw_total::cpu2.inst         27876549                       # Total bandwidth to/from this memory (bytes/s)
system.mem_ctrls.bw_total::cpu2.data         10721750                       # Total bandwidth to/from this memory (bytes/s)
system.mem_ctrls.bw_total::cpu3.inst         28412637                       # Total bandwidth to/from this memory (bytes/s)
system.mem_ctrls.bw_total::cpu3.data         11793925                       # Total bandwidth to/from this memory (bytes/s)
system.mem_ctrls.bw_total::cpu4.inst         26804374                       # Total bandwidth to/from this memory (bytes/s)
system.mem_ctrls.bw_total::cpu4.data         16618712                       # Total bandwidth to/from this memory (bytes/s)
system.mem_ctrls.bw_total::cpu5.inst         28948724                       # Total bandwidth to/from this memory (bytes/s)
system.mem_ctrls.bw_total::cpu5.data         12866100                       # Total bandwidth to/from this memory (bytes/s)
system.mem_ctrls.bw_total::cpu6.inst         29484812                       # Total bandwidth to/from this memory (bytes/s)
system.mem_ctrls.bw_total::cpu6.data         12866100                       # Total bandwidth to/from this memory (bytes/s)
system.mem_ctrls.bw_total::cpu7.inst         28412637                       # Total bandwidth to/from this memory (bytes/s)
system.mem_ctrls.bw_total::cpu7.data         12866100                       # Total bandwidth to/from this memory (bytes/s)
system.mem_ctrls.bw_total::total           1179928550                       # Total bandwidth to/from this memory (bytes/s)
system.mem_ctrls.readReqs                        2109                       # Number of read requests accepted
system.mem_ctrls.writeReqs                         93                       # Number of write requests accepted
system.mem_ctrls.readBursts                      2109                       # Number of DRAM read bursts, including those serviced by the write queue
system.mem_ctrls.writeBursts                       93                       # Number of DRAM write bursts, including those merged in the write queue
system.mem_ctrls.bytesReadDRAM                 131648                       # Total number of bytes read from DRAM
system.mem_ctrls.bytesReadWrQ                    3328                       # Total number of bytes read from write queue
system.mem_ctrls.bytesWritten                    4224                       # Total number of bytes written to DRAM
system.mem_ctrls.bytesReadSys                  134976                       # Total read bytes from the system interface side
system.mem_ctrls.bytesWrittenSys                 5952                       # Total written bytes from the system interface side
system.mem_ctrls.servicedByWrQ                     52                       # Number of DRAM read bursts serviced by the write queue
system.mem_ctrls.mergedWrBursts                     2                       # Number of DRAM write bursts merged with an existing one
system.mem_ctrls.neitherReadNorWriteReqs            6                       # Number of requests that are neither read nor write
system.mem_ctrls.perBankRdBursts::0               215                       # Per bank write bursts
system.mem_ctrls.perBankRdBursts::1               364                       # Per bank write bursts
system.mem_ctrls.perBankRdBursts::2               215                       # Per bank write bursts
system.mem_ctrls.perBankRdBursts::3               254                       # Per bank write bursts
system.mem_ctrls.perBankRdBursts::4               177                       # Per bank write bursts
system.mem_ctrls.perBankRdBursts::5               185                       # Per bank write bursts
system.mem_ctrls.perBankRdBursts::6               245                       # Per bank write bursts
system.mem_ctrls.perBankRdBursts::7               167                       # Per bank write bursts
system.mem_ctrls.perBankRdBursts::8                26                       # Per bank write bursts
system.mem_ctrls.perBankRdBursts::9                 8                       # Per bank write bursts
system.mem_ctrls.perBankRdBursts::10                0                       # Per bank write bursts
system.mem_ctrls.perBankRdBursts::11               15                       # Per bank write bursts
system.mem_ctrls.perBankRdBursts::12                8                       # Per bank write bursts
system.mem_ctrls.perBankRdBursts::13               41                       # Per bank write bursts
system.mem_ctrls.perBankRdBursts::14               39                       # Per bank write bursts
system.mem_ctrls.perBankRdBursts::15               98                       # Per bank write bursts
system.mem_ctrls.perBankWrBursts::0                 1                       # Per bank write bursts
system.mem_ctrls.perBankWrBursts::1                 0                       # Per bank write bursts
system.mem_ctrls.perBankWrBursts::2                 4                       # Per bank write bursts
system.mem_ctrls.perBankWrBursts::3                19                       # Per bank write bursts
system.mem_ctrls.perBankWrBursts::4                 1                       # Per bank write bursts
system.mem_ctrls.perBankWrBursts::5                 0                       # Per bank write bursts
system.mem_ctrls.perBankWrBursts::6                 0                       # Per bank write bursts
system.mem_ctrls.perBankWrBursts::7                13                       # Per bank write bursts
system.mem_ctrls.perBankWrBursts::8                 1                       # Per bank write bursts
system.mem_ctrls.perBankWrBursts::9                 0                       # Per bank write bursts
system.mem_ctrls.perBankWrBursts::10                0                       # Per bank write bursts
system.mem_ctrls.perBankWrBursts::11                0                       # Per bank write bursts
system.mem_ctrls.perBankWrBursts::12                0                       # Per bank write bursts
system.mem_ctrls.perBankWrBursts::13                0                       # Per bank write bursts
system.mem_ctrls.perBankWrBursts::14                0                       # Per bank write bursts
system.mem_ctrls.perBankWrBursts::15               27                       # Per bank write bursts
system.mem_ctrls.numRdRetry                         0                       # Number of times read queue was full causing retry
system.mem_ctrls.numWrRetry                         0                       # Number of times write queue was full causing retry
system.mem_ctrls.totGap                     119376000                       # Total gap between requests
system.mem_ctrls.readPktSize::0                     0                       # Read request sizes (log2)
system.mem_ctrls.readPktSize::1                     0                       # Read request sizes (log2)
system.mem_ctrls.readPktSize::2                     0                       # Read request sizes (log2)
system.mem_ctrls.readPktSize::3                     0                       # Read request sizes (log2)
system.mem_ctrls.readPktSize::4                     0                       # Read request sizes (log2)
system.mem_ctrls.readPktSize::5                     0                       # Read request sizes (log2)
system.mem_ctrls.readPktSize::6                  2109                       # Read request sizes (log2)
system.mem_ctrls.writePktSize::0                    0                       # Write request sizes (log2)
system.mem_ctrls.writePktSize::1                    0                       # Write request sizes (log2)
system.mem_ctrls.writePktSize::2                    0                       # Write request sizes (log2)
system.mem_ctrls.writePktSize::3                    0                       # Write request sizes (log2)
system.mem_ctrls.writePktSize::4                    0                       # Write request sizes (log2)
system.mem_ctrls.writePktSize::5                    0                       # Write request sizes (log2)
system.mem_ctrls.writePktSize::6                   93                       # Write request sizes (log2)
system.mem_ctrls.rdQLenPdf::0                    1198                       # What read queue length does an incoming req see
system.mem_ctrls.rdQLenPdf::1                     301                       # What read queue length does an incoming req see
system.mem_ctrls.rdQLenPdf::2                     130                       # What read queue length does an incoming req see
system.mem_ctrls.rdQLenPdf::3                      79                       # What read queue length does an incoming req see
system.mem_ctrls.rdQLenPdf::4                      68                       # What read queue length does an incoming req see
system.mem_ctrls.rdQLenPdf::5                      57                       # What read queue length does an incoming req see
system.mem_ctrls.rdQLenPdf::6                      50                       # What read queue length does an incoming req see
system.mem_ctrls.rdQLenPdf::7                      48                       # What read queue length does an incoming req see
system.mem_ctrls.rdQLenPdf::8                      33                       # What read queue length does an incoming req see
system.mem_ctrls.rdQLenPdf::9                      37                       # What read queue length does an incoming req see
system.mem_ctrls.rdQLenPdf::10                     29                       # What read queue length does an incoming req see
system.mem_ctrls.rdQLenPdf::11                     20                       # What read queue length does an incoming req see
system.mem_ctrls.rdQLenPdf::12                      5                       # What read queue length does an incoming req see
system.mem_ctrls.rdQLenPdf::13                      1                       # What read queue length does an incoming req see
system.mem_ctrls.rdQLenPdf::14                      1                       # What read queue length does an incoming req see
system.mem_ctrls.rdQLenPdf::15                      0                       # What read queue length does an incoming req see
system.mem_ctrls.rdQLenPdf::16                      0                       # What read queue length does an incoming req see
system.mem_ctrls.rdQLenPdf::17                      0                       # What read queue length does an incoming req see
system.mem_ctrls.rdQLenPdf::18                      0                       # What read queue length does an incoming req see
system.mem_ctrls.rdQLenPdf::19                      0                       # What read queue length does an incoming req see
system.mem_ctrls.rdQLenPdf::20                      0                       # What read queue length does an incoming req see
system.mem_ctrls.rdQLenPdf::21                      0                       # What read queue length does an incoming req see
system.mem_ctrls.rdQLenPdf::22                      0                       # What read queue length does an incoming req see
system.mem_ctrls.rdQLenPdf::23                      0                       # What read queue length does an incoming req see
system.mem_ctrls.rdQLenPdf::24                      0                       # What read queue length does an incoming req see
system.mem_ctrls.rdQLenPdf::25                      0                       # What read queue length does an incoming req see
system.mem_ctrls.rdQLenPdf::26                      0                       # What read queue length does an incoming req see
system.mem_ctrls.rdQLenPdf::27                      0                       # What read queue length does an incoming req see
system.mem_ctrls.rdQLenPdf::28                      0                       # What read queue length does an incoming req see
system.mem_ctrls.rdQLenPdf::29                      0                       # What read queue length does an incoming req see
system.mem_ctrls.rdQLenPdf::30                      0                       # What read queue length does an incoming req see
system.mem_ctrls.rdQLenPdf::31                      0                       # What read queue length does an incoming req see
system.mem_ctrls.wrQLenPdf::0                       1                       # What write queue length does an incoming req see
system.mem_ctrls.wrQLenPdf::1                       1                       # What write queue length does an incoming req see
system.mem_ctrls.wrQLenPdf::2                       1                       # What write queue length does an incoming req see
system.mem_ctrls.wrQLenPdf::3                       1                       # What write queue length does an incoming req see
system.mem_ctrls.wrQLenPdf::4                       1                       # What write queue length does an incoming req see
system.mem_ctrls.wrQLenPdf::5                       1                       # What write queue length does an incoming req see
system.mem_ctrls.wrQLenPdf::6                       1                       # What write queue length does an incoming req see
system.mem_ctrls.wrQLenPdf::7                       1                       # What write queue length does an incoming req see
system.mem_ctrls.wrQLenPdf::8                       1                       # What write queue length does an incoming req see
system.mem_ctrls.wrQLenPdf::9                       1                       # What write queue length does an incoming req see
system.mem_ctrls.wrQLenPdf::10                      1                       # What write queue length does an incoming req see
system.mem_ctrls.wrQLenPdf::11                      1                       # What write queue length does an incoming req see
system.mem_ctrls.wrQLenPdf::12                      1                       # What write queue length does an incoming req see
system.mem_ctrls.wrQLenPdf::13                      1                       # What write queue length does an incoming req see
system.mem_ctrls.wrQLenPdf::14                      1                       # What write queue length does an incoming req see
system.mem_ctrls.wrQLenPdf::15                      2                       # What write queue length does an incoming req see
system.mem_ctrls.wrQLenPdf::16                      2                       # What write queue length does an incoming req see
system.mem_ctrls.wrQLenPdf::17                      4                       # What write queue length does an incoming req see
system.mem_ctrls.wrQLenPdf::18                      5                       # What write queue length does an incoming req see
system.mem_ctrls.wrQLenPdf::19                      5                       # What write queue length does an incoming req see
system.mem_ctrls.wrQLenPdf::20                      5                       # What write queue length does an incoming req see
system.mem_ctrls.wrQLenPdf::21                      5                       # What write queue length does an incoming req see
system.mem_ctrls.wrQLenPdf::22                      5                       # What write queue length does an incoming req see
system.mem_ctrls.wrQLenPdf::23                      5                       # What write queue length does an incoming req see
system.mem_ctrls.wrQLenPdf::24                      5                       # What write queue length does an incoming req see
system.mem_ctrls.wrQLenPdf::25                      4                       # What write queue length does an incoming req see
system.mem_ctrls.wrQLenPdf::26                      4                       # What write queue length does an incoming req see
system.mem_ctrls.wrQLenPdf::27                      5                       # What write queue length does an incoming req see
system.mem_ctrls.wrQLenPdf::28                      4                       # What write queue length does an incoming req see
system.mem_ctrls.wrQLenPdf::29                      4                       # What write queue length does an incoming req see
system.mem_ctrls.wrQLenPdf::30                      4                       # What write queue length does an incoming req see
system.mem_ctrls.wrQLenPdf::31                      4                       # What write queue length does an incoming req see
system.mem_ctrls.wrQLenPdf::32                      4                       # What write queue length does an incoming req see
system.mem_ctrls.wrQLenPdf::33                      0                       # What write queue length does an incoming req see
system.mem_ctrls.wrQLenPdf::34                      0                       # What write queue length does an incoming req see
system.mem_ctrls.wrQLenPdf::35                      0                       # What write queue length does an incoming req see
system.mem_ctrls.wrQLenPdf::36                      0                       # What write queue length does an incoming req see
system.mem_ctrls.wrQLenPdf::37                      0                       # What write queue length does an incoming req see
system.mem_ctrls.wrQLenPdf::38                      0                       # What write queue length does an incoming req see
system.mem_ctrls.wrQLenPdf::39                      0                       # What write queue length does an incoming req see
system.mem_ctrls.wrQLenPdf::40                      0                       # What write queue length does an incoming req see
system.mem_ctrls.wrQLenPdf::41                      0                       # What write queue length does an incoming req see
system.mem_ctrls.wrQLenPdf::42                      0                       # What write queue length does an incoming req see
system.mem_ctrls.wrQLenPdf::43                      0                       # What write queue length does an incoming req see
system.mem_ctrls.wrQLenPdf::44                      0                       # What write queue length does an incoming req see
system.mem_ctrls.wrQLenPdf::45                      0                       # What write queue length does an incoming req see
system.mem_ctrls.wrQLenPdf::46                      0                       # What write queue length does an incoming req see
system.mem_ctrls.wrQLenPdf::47                      0                       # What write queue length does an incoming req see
system.mem_ctrls.wrQLenPdf::48                      0                       # What write queue length does an incoming req see
system.mem_ctrls.wrQLenPdf::49                      0                       # What write queue length does an incoming req see
system.mem_ctrls.wrQLenPdf::50                      0                       # What write queue length does an incoming req see
system.mem_ctrls.wrQLenPdf::51                      0                       # What write queue length does an incoming req see
system.mem_ctrls.wrQLenPdf::52                      0                       # What write queue length does an incoming req see
system.mem_ctrls.wrQLenPdf::53                      0                       # What write queue length does an incoming req see
system.mem_ctrls.wrQLenPdf::54                      0                       # What write queue length does an incoming req see
system.mem_ctrls.wrQLenPdf::55                      0                       # What write queue length does an incoming req see
system.mem_ctrls.wrQLenPdf::56                      0                       # What write queue length does an incoming req see
system.mem_ctrls.wrQLenPdf::57                      0                       # What write queue length does an incoming req see
system.mem_ctrls.wrQLenPdf::58                      0                       # What write queue length does an incoming req see
system.mem_ctrls.wrQLenPdf::59                      0                       # What write queue length does an incoming req see
system.mem_ctrls.wrQLenPdf::60                      0                       # What write queue length does an incoming req see
system.mem_ctrls.wrQLenPdf::61                      0                       # What write queue length does an incoming req see
system.mem_ctrls.wrQLenPdf::62                      0                       # What write queue length does an incoming req see
system.mem_ctrls.wrQLenPdf::63                      0                       # What write queue length does an incoming req see
system.mem_ctrls.bytesPerActivate::samples          372                       # Bytes accessed per row activation
system.mem_ctrls.bytesPerActivate::mean    359.913978                       # Bytes accessed per row activation
system.mem_ctrls.bytesPerActivate::gmean   198.625217                       # Bytes accessed per row activation
system.mem_ctrls.bytesPerActivate::stdev   375.794623                       # Bytes accessed per row activation
system.mem_ctrls.bytesPerActivate::0-127          144     38.71%     38.71% # Bytes accessed per row activation
system.mem_ctrls.bytesPerActivate::128-255           71     19.09%     57.80% # Bytes accessed per row activation
system.mem_ctrls.bytesPerActivate::256-383           30      8.06%     65.86% # Bytes accessed per row activation
system.mem_ctrls.bytesPerActivate::384-511           25      6.72%     72.58% # Bytes accessed per row activation
system.mem_ctrls.bytesPerActivate::512-639           10      2.69%     75.27% # Bytes accessed per row activation
system.mem_ctrls.bytesPerActivate::640-767            6      1.61%     76.88% # Bytes accessed per row activation
system.mem_ctrls.bytesPerActivate::768-895            5      1.34%     78.23% # Bytes accessed per row activation
system.mem_ctrls.bytesPerActivate::896-1023           10      2.69%     80.91% # Bytes accessed per row activation
system.mem_ctrls.bytesPerActivate::1024-1151           71     19.09%    100.00% # Bytes accessed per row activation
system.mem_ctrls.bytesPerActivate::total          372                       # Bytes accessed per row activation
system.mem_ctrls.rdPerTurnAround::samples            4                       # Reads before turning the bus around for writes
system.mem_ctrls.rdPerTurnAround::mean     372.750000                       # Reads before turning the bus around for writes
system.mem_ctrls.rdPerTurnAround::gmean    147.324091                       # Reads before turning the bus around for writes
system.mem_ctrls.rdPerTurnAround::stdev    572.690361                       # Reads before turning the bus around for writes
system.mem_ctrls.rdPerTurnAround::0-63              1     25.00%     25.00% # Reads before turning the bus around for writes
system.mem_ctrls.rdPerTurnAround::64-127            1     25.00%     50.00% # Reads before turning the bus around for writes
system.mem_ctrls.rdPerTurnAround::128-191            1     25.00%     75.00% # Reads before turning the bus around for writes
system.mem_ctrls.rdPerTurnAround::1216-1279            1     25.00%    100.00% # Reads before turning the bus around for writes
system.mem_ctrls.rdPerTurnAround::total             4                       # Reads before turning the bus around for writes
system.mem_ctrls.wrPerTurnAround::samples            4                       # Writes before turning the bus around for reads
system.mem_ctrls.wrPerTurnAround::mean      16.500000                       # Writes before turning the bus around for reads
system.mem_ctrls.wrPerTurnAround::gmean     16.478137                       # Writes before turning the bus around for reads
system.mem_ctrls.wrPerTurnAround::stdev             1                       # Writes before turning the bus around for reads
system.mem_ctrls.wrPerTurnAround::16                3     75.00%     75.00% # Writes before turning the bus around for reads
system.mem_ctrls.wrPerTurnAround::18                1     25.00%    100.00% # Writes before turning the bus around for reads
system.mem_ctrls.wrPerTurnAround::total             4                       # Writes before turning the bus around for reads
system.mem_ctrls.totQLat                     28510750                       # Total ticks spent queuing
system.mem_ctrls.totMemAccLat                67079500                       # Total ticks spent from burst creation until serviced by the DRAM
system.mem_ctrls.totBusLat                   10285000                       # Total ticks spent in databus transfers
system.mem_ctrls.avgQLat                     13860.35                       # Average queueing delay per DRAM burst
system.mem_ctrls.avgBusLat                    5000.00                       # Average bus latency per DRAM burst
system.mem_ctrls.avgMemAccLat                32610.35                       # Average memory access latency per DRAM burst
system.mem_ctrls.avgRdBW                      1102.73                       # Average DRAM read bandwidth in MiByte/s
system.mem_ctrls.avgWrBW                        35.38                       # Average achieved write bandwidth in MiByte/s
system.mem_ctrls.avgRdBWSys                   1130.61                       # Average system read bandwidth in MiByte/s
system.mem_ctrls.avgWrBWSys                     49.86                       # Average system write bandwidth in MiByte/s
system.mem_ctrls.peakBW                      12800.00                       # Theoretical peak bandwidth in MiByte/s
system.mem_ctrls.busUtil                         8.89                       # Data bus utilization in percentage
system.mem_ctrls.busUtilRead                     8.62                       # Data bus utilization in percentage for reads
system.mem_ctrls.busUtilWrite                    0.28                       # Data bus utilization in percentage for writes
system.mem_ctrls.avgRdQLen                       1.48                       # Average read queue length when enqueuing
system.mem_ctrls.avgWrQLen                      12.57                       # Average write queue length when enqueuing
system.mem_ctrls.readRowHits                     1686                       # Number of row buffer hits during reads
system.mem_ctrls.writeRowHits                      56                       # Number of row buffer hits during writes
system.mem_ctrls.readRowHitRate                 81.96                       # Row buffer hit rate for reads
system.mem_ctrls.writeRowHitRate                61.54                       # Row buffer hit rate for writes
system.mem_ctrls.avgGap                      54212.53                       # Average gap between requests
system.mem_ctrls.pageHitRate                    81.10                       # Row buffer hit rate, read and write combined
system.mem_ctrls_0.actEnergy                  2411640                       # Energy for activate commands per rank (pJ)
system.mem_ctrls_0.preEnergy                  1315875                       # Energy for precharge commands per rank (pJ)
system.mem_ctrls_0.readEnergy                14032200                       # Energy for read commands per rank (pJ)
system.mem_ctrls_0.writeEnergy                 246240                       # Energy for write commands per rank (pJ)
system.mem_ctrls_0.refreshEnergy              7628400                       # Energy for refresh commands per rank (pJ)
system.mem_ctrls_0.actBackEnergy             76024890                       # Energy for active background per rank (pJ)
system.mem_ctrls_0.preBackEnergy              3545250                       # Energy for precharge background per rank (pJ)
system.mem_ctrls_0.totalEnergy              105204495                       # Total energy per rank (pJ)
system.mem_ctrls_0.averagePower            898.751626                       # Core power per rank (mW)
system.mem_ctrls_0.memoryStateTime::IDLE      5369500                       # Time in different power states
system.mem_ctrls_0.memoryStateTime::REF       3900000                       # Time in different power states
system.mem_ctrls_0.memoryStateTime::PRE_PDN            0                       # Time in different power states
system.mem_ctrls_0.memoryStateTime::ACT     107800250                       # Time in different power states
system.mem_ctrls_0.memoryStateTime::ACT_PDN            0                       # Time in different power states
system.mem_ctrls_1.actEnergy                   340200                       # Energy for activate commands per rank (pJ)
system.mem_ctrls_1.preEnergy                   185625                       # Energy for precharge commands per rank (pJ)
system.mem_ctrls_1.readEnergy                 1528800                       # Energy for read commands per rank (pJ)
system.mem_ctrls_1.writeEnergy                 181440                       # Energy for write commands per rank (pJ)
system.mem_ctrls_1.refreshEnergy              7628400                       # Energy for refresh commands per rank (pJ)
system.mem_ctrls_1.actBackEnergy             34933590                       # Energy for active background per rank (pJ)
system.mem_ctrls_1.preBackEnergy             39588750                       # Energy for precharge background per rank (pJ)
system.mem_ctrls_1.totalEnergy               84386805                       # Total energy per rank (pJ)
system.mem_ctrls_1.averagePower            720.923550                       # Core power per rank (mW)
system.mem_ctrls_1.memoryStateTime::IDLE     65704750                       # Time in different power states
system.mem_ctrls_1.memoryStateTime::REF       3900000                       # Time in different power states
system.mem_ctrls_1.memoryStateTime::PRE_PDN            0                       # Time in different power states
system.mem_ctrls_1.memoryStateTime::ACT      47547250                       # Time in different power states
system.mem_ctrls_1.memoryStateTime::ACT_PDN            0                       # Time in different power states
system.cpu0.branchPred.lookups                  21543                       # Number of BP lookups
system.cpu0.branchPred.condPredicted            19082                       # Number of conditional branches predicted
system.cpu0.branchPred.condIncorrect             1599                       # Number of conditional branches incorrect
system.cpu0.branchPred.BTBLookups               15653                       # Number of BTB lookups
system.cpu0.branchPred.BTBHits                  14835                       # Number of BTB hits
system.cpu0.branchPred.BTBCorrect                   0                       # Number of correct BTB predictions (this stat may not work properly.
system.cpu0.branchPred.BTBHitPct            94.774165                       # BTB Hit Percentage
system.cpu0.branchPred.usedRAS                    818                       # Number of times the RAS was used to get a target.
system.cpu0.branchPred.RASInCorrect                 7                       # Number of incorrect RAS predictions.
system.cpu_voltage_domain.voltage                   1                       # Voltage in Volts
system.cpu_clk_domain.clock                       500                       # Clock period in ticks
system.cpu0.dstage2_mmu.stage2_tlb.walker.walks            0                       # Table walker walks requested
system.cpu0.dstage2_mmu.stage2_tlb.walker.walkRequestOrigin_Requested::Data            0                       # Table walker requests started/completed, data/inst
system.cpu0.dstage2_mmu.stage2_tlb.walker.walkRequestOrigin_Requested::Inst            0                       # Table walker requests started/completed, data/inst
system.cpu0.dstage2_mmu.stage2_tlb.walker.walkRequestOrigin_Requested::total            0                       # Table walker requests started/completed, data/inst
system.cpu0.dstage2_mmu.stage2_tlb.walker.walkRequestOrigin_Completed::Data            0                       # Table walker requests started/completed, data/inst
system.cpu0.dstage2_mmu.stage2_tlb.walker.walkRequestOrigin_Completed::Inst            0                       # Table walker requests started/completed, data/inst
system.cpu0.dstage2_mmu.stage2_tlb.walker.walkRequestOrigin_Completed::total            0                       # Table walker requests started/completed, data/inst
system.cpu0.dstage2_mmu.stage2_tlb.walker.walkRequestOrigin::total            0                       # Table walker requests started/completed, data/inst
system.cpu0.dstage2_mmu.stage2_tlb.inst_hits            0                       # ITB inst hits
system.cpu0.dstage2_mmu.stage2_tlb.inst_misses            0                       # ITB inst misses
system.cpu0.dstage2_mmu.stage2_tlb.read_hits            0                       # DTB read hits
system.cpu0.dstage2_mmu.stage2_tlb.read_misses            0                       # DTB read misses
system.cpu0.dstage2_mmu.stage2_tlb.write_hits            0                       # DTB write hits
system.cpu0.dstage2_mmu.stage2_tlb.write_misses            0                       # DTB write misses
system.cpu0.dstage2_mmu.stage2_tlb.flush_tlb            0                       # Number of times complete TLB was flushed
system.cpu0.dstage2_mmu.stage2_tlb.flush_tlb_mva            0                       # Number of times TLB was flushed by MVA
system.cpu0.dstage2_mmu.stage2_tlb.flush_tlb_mva_asid            0                       # Number of times TLB was flushed by MVA & ASID
system.cpu0.dstage2_mmu.stage2_tlb.flush_tlb_asid            0                       # Number of times TLB was flushed by ASID
system.cpu0.dstage2_mmu.stage2_tlb.flush_entries            0                       # Number of entries that have been flushed from TLB
system.cpu0.dstage2_mmu.stage2_tlb.align_faults            0                       # Number of TLB faults due to alignment restrictions
system.cpu0.dstage2_mmu.stage2_tlb.prefetch_faults            0                       # Number of TLB faults due to prefetch
system.cpu0.dstage2_mmu.stage2_tlb.domain_faults            0                       # Number of TLB faults due to domain restrictions
system.cpu0.dstage2_mmu.stage2_tlb.perms_faults            0                       # Number of TLB faults due to permissions restrictions
system.cpu0.dstage2_mmu.stage2_tlb.read_accesses            0                       # DTB read accesses
system.cpu0.dstage2_mmu.stage2_tlb.write_accesses            0                       # DTB write accesses
system.cpu0.dstage2_mmu.stage2_tlb.inst_accesses            0                       # ITB inst accesses
system.cpu0.dstage2_mmu.stage2_tlb.hits             0                       # DTB hits
system.cpu0.dstage2_mmu.stage2_tlb.misses            0                       # DTB misses
system.cpu0.dstage2_mmu.stage2_tlb.accesses            0                       # DTB accesses
system.cpu0.dtb.walker.walks                        0                       # Table walker walks requested
system.cpu0.dtb.walker.walkRequestOrigin_Requested::Data            0                       # Table walker requests started/completed, data/inst
system.cpu0.dtb.walker.walkRequestOrigin_Requested::Inst            0                       # Table walker requests started/completed, data/inst
system.cpu0.dtb.walker.walkRequestOrigin_Requested::total            0                       # Table walker requests started/completed, data/inst
system.cpu0.dtb.walker.walkRequestOrigin_Completed::Data            0                       # Table walker requests started/completed, data/inst
system.cpu0.dtb.walker.walkRequestOrigin_Completed::Inst            0                       # Table walker requests started/completed, data/inst
system.cpu0.dtb.walker.walkRequestOrigin_Completed::total            0                       # Table walker requests started/completed, data/inst
system.cpu0.dtb.walker.walkRequestOrigin::total            0                       # Table walker requests started/completed, data/inst
system.cpu0.dtb.inst_hits                           0                       # ITB inst hits
system.cpu0.dtb.inst_misses                         0                       # ITB inst misses
system.cpu0.dtb.read_hits                           0                       # DTB read hits
system.cpu0.dtb.read_misses                         0                       # DTB read misses
system.cpu0.dtb.write_hits                          0                       # DTB write hits
system.cpu0.dtb.write_misses                        0                       # DTB write misses
system.cpu0.dtb.flush_tlb                           0                       # Number of times complete TLB was flushed
system.cpu0.dtb.flush_tlb_mva                       0                       # Number of times TLB was flushed by MVA
system.cpu0.dtb.flush_tlb_mva_asid                  0                       # Number of times TLB was flushed by MVA & ASID
system.cpu0.dtb.flush_tlb_asid                      0                       # Number of times TLB was flushed by ASID
system.cpu0.dtb.flush_entries                       0                       # Number of entries that have been flushed from TLB
system.cpu0.dtb.align_faults                        0                       # Number of TLB faults due to alignment restrictions
system.cpu0.dtb.prefetch_faults                     0                       # Number of TLB faults due to prefetch
system.cpu0.dtb.domain_faults                       0                       # Number of TLB faults due to domain restrictions
system.cpu0.dtb.perms_faults                        0                       # Number of TLB faults due to permissions restrictions
system.cpu0.dtb.read_accesses                       0                       # DTB read accesses
system.cpu0.dtb.write_accesses                      0                       # DTB write accesses
system.cpu0.dtb.inst_accesses                       0                       # ITB inst accesses
system.cpu0.dtb.hits                                0                       # DTB hits
system.cpu0.dtb.misses                              0                       # DTB misses
system.cpu0.dtb.accesses                            0                       # DTB accesses
system.cpu0.istage2_mmu.stage2_tlb.walker.walks            0                       # Table walker walks requested
system.cpu0.istage2_mmu.stage2_tlb.walker.walkRequestOrigin_Requested::Data            0                       # Table walker requests started/completed, data/inst
system.cpu0.istage2_mmu.stage2_tlb.walker.walkRequestOrigin_Requested::Inst            0                       # Table walker requests started/completed, data/inst
system.cpu0.istage2_mmu.stage2_tlb.walker.walkRequestOrigin_Requested::total            0                       # Table walker requests started/completed, data/inst
system.cpu0.istage2_mmu.stage2_tlb.walker.walkRequestOrigin_Completed::Data            0                       # Table walker requests started/completed, data/inst
system.cpu0.istage2_mmu.stage2_tlb.walker.walkRequestOrigin_Completed::Inst            0                       # Table walker requests started/completed, data/inst
system.cpu0.istage2_mmu.stage2_tlb.walker.walkRequestOrigin_Completed::total            0                       # Table walker requests started/completed, data/inst
system.cpu0.istage2_mmu.stage2_tlb.walker.walkRequestOrigin::total            0                       # Table walker requests started/completed, data/inst
system.cpu0.istage2_mmu.stage2_tlb.inst_hits            0                       # ITB inst hits
system.cpu0.istage2_mmu.stage2_tlb.inst_misses            0                       # ITB inst misses
system.cpu0.istage2_mmu.stage2_tlb.read_hits            0                       # DTB read hits
system.cpu0.istage2_mmu.stage2_tlb.read_misses            0                       # DTB read misses
system.cpu0.istage2_mmu.stage2_tlb.write_hits            0                       # DTB write hits
system.cpu0.istage2_mmu.stage2_tlb.write_misses            0                       # DTB write misses
system.cpu0.istage2_mmu.stage2_tlb.flush_tlb            0                       # Number of times complete TLB was flushed
system.cpu0.istage2_mmu.stage2_tlb.flush_tlb_mva            0                       # Number of times TLB was flushed by MVA
system.cpu0.istage2_mmu.stage2_tlb.flush_tlb_mva_asid            0                       # Number of times TLB was flushed by MVA & ASID
system.cpu0.istage2_mmu.stage2_tlb.flush_tlb_asid            0                       # Number of times TLB was flushed by ASID
system.cpu0.istage2_mmu.stage2_tlb.flush_entries            0                       # Number of entries that have been flushed from TLB
system.cpu0.istage2_mmu.stage2_tlb.align_faults            0                       # Number of TLB faults due to alignment restrictions
system.cpu0.istage2_mmu.stage2_tlb.prefetch_faults            0                       # Number of TLB faults due to prefetch
system.cpu0.istage2_mmu.stage2_tlb.domain_faults            0                       # Number of TLB faults due to domain restrictions
system.cpu0.istage2_mmu.stage2_tlb.perms_faults            0                       # Number of TLB faults due to permissions restrictions
system.cpu0.istage2_mmu.stage2_tlb.read_accesses            0                       # DTB read accesses
system.cpu0.istage2_mmu.stage2_tlb.write_accesses            0                       # DTB write accesses
system.cpu0.istage2_mmu.stage2_tlb.inst_accesses            0                       # ITB inst accesses
system.cpu0.istage2_mmu.stage2_tlb.hits             0                       # DTB hits
system.cpu0.istage2_mmu.stage2_tlb.misses            0                       # DTB misses
system.cpu0.istage2_mmu.stage2_tlb.accesses            0                       # DTB accesses
system.cpu0.itb.walker.walks                        0                       # Table walker walks requested
system.cpu0.itb.walker.walkRequestOrigin_Requested::Data            0                       # Table walker requests started/completed, data/inst
system.cpu0.itb.walker.walkRequestOrigin_Requested::Inst            0                       # Table walker requests started/completed, data/inst
system.cpu0.itb.walker.walkRequestOrigin_Requested::total            0                       # Table walker requests started/completed, data/inst
system.cpu0.itb.walker.walkRequestOrigin_Completed::Data            0                       # Table walker requests started/completed, data/inst
system.cpu0.itb.walker.walkRequestOrigin_Completed::Inst            0                       # Table walker requests started/completed, data/inst
system.cpu0.itb.walker.walkRequestOrigin_Completed::total            0                       # Table walker requests started/completed, data/inst
system.cpu0.itb.walker.walkRequestOrigin::total            0                       # Table walker requests started/completed, data/inst
system.cpu0.itb.inst_hits                           0                       # ITB inst hits
system.cpu0.itb.inst_misses                         0                       # ITB inst misses
system.cpu0.itb.read_hits                           0                       # DTB read hits
system.cpu0.itb.read_misses                         0                       # DTB read misses
system.cpu0.itb.write_hits                          0                       # DTB write hits
system.cpu0.itb.write_misses                        0                       # DTB write misses
system.cpu0.itb.flush_tlb                           0                       # Number of times complete TLB was flushed
system.cpu0.itb.flush_tlb_mva                       0                       # Number of times TLB was flushed by MVA
system.cpu0.itb.flush_tlb_mva_asid                  0                       # Number of times TLB was flushed by MVA & ASID
system.cpu0.itb.flush_tlb_asid                      0                       # Number of times TLB was flushed by ASID
system.cpu0.itb.flush_entries                       0                       # Number of entries that have been flushed from TLB
system.cpu0.itb.align_faults                        0                       # Number of TLB faults due to alignment restrictions
system.cpu0.itb.prefetch_faults                     0                       # Number of TLB faults due to prefetch
system.cpu0.itb.domain_faults                       0                       # Number of TLB faults due to domain restrictions
system.cpu0.itb.perms_faults                        0                       # Number of TLB faults due to permissions restrictions
system.cpu0.itb.read_accesses                       0                       # DTB read accesses
system.cpu0.itb.write_accesses                      0                       # DTB write accesses
system.cpu0.itb.inst_accesses                       0                       # ITB inst accesses
system.cpu0.itb.hits                                0                       # DTB hits
system.cpu0.itb.misses                              0                       # DTB misses
system.cpu0.itb.accesses                            0                       # DTB accesses
system.cpu0.workload.num_syscalls                 152                       # Number of system calls
system.cpu0.numCycles                          238768                       # number of cpu cycles simulated
system.cpu0.numWorkItemsStarted                     0                       # number of work items this cpu started
system.cpu0.numWorkItemsCompleted                   0                       # number of work items this cpu completed
system.cpu0.fetch.icacheStallCycles             15829                       # Number of cycles fetch is stalled on an Icache miss
system.cpu0.fetch.Insts                        212777                       # Number of instructions fetch has processed
system.cpu0.fetch.Branches                      21543                       # Number of branches that fetch encountered
system.cpu0.fetch.predictedBranches             15653                       # Number of branches that fetch has predicted taken
system.cpu0.fetch.Cycles                       180010                       # Number of cycles fetch has run and was not squashing or blocked
system.cpu0.fetch.SquashCycles                   3291                       # Number of cycles fetch has spent squashing
system.cpu0.fetch.MiscStallCycles                 260                       # Number of cycles fetch has spent waiting on interrupts, or bad addresses, or out of MSHRs
system.cpu0.fetch.PendingTrapStallCycles          108                       # Number of stall cycles due to pending traps
system.cpu0.fetch.IcacheWaitRetryStallCycles          500                       # Number of stall cycles due to full MSHR
system.cpu0.fetch.CacheLines                    61201                       # Number of cache lines fetched
system.cpu0.fetch.IcacheSquashes                  370                       # Number of outstanding Icache misses that were squashed
system.cpu0.fetch.rateDist::samples            198352                       # Number of instructions fetched each cycle (Total)
system.cpu0.fetch.rateDist::mean             1.163855                       # Number of instructions fetched each cycle (Total)
system.cpu0.fetch.rateDist::stdev            1.289777                       # Number of instructions fetched each cycle (Total)
system.cpu0.fetch.rateDist::underflows              0      0.00%      0.00% # Number of instructions fetched each cycle (Total)
system.cpu0.fetch.rateDist::0                   92220     46.49%     46.49% # Number of instructions fetched each cycle (Total)
system.cpu0.fetch.rateDist::1                   40584     20.46%     66.95% # Number of instructions fetched each cycle (Total)
system.cpu0.fetch.rateDist::2                    6375      3.21%     70.17% # Number of instructions fetched each cycle (Total)
system.cpu0.fetch.rateDist::3                   59173     29.83%    100.00% # Number of instructions fetched each cycle (Total)
system.cpu0.fetch.rateDist::overflows               0      0.00%    100.00% # Number of instructions fetched each cycle (Total)
system.cpu0.fetch.rateDist::min_value               0                       # Number of instructions fetched each cycle (Total)
system.cpu0.fetch.rateDist::max_value               3                       # Number of instructions fetched each cycle (Total)
system.cpu0.fetch.rateDist::total              198352                       # Number of instructions fetched each cycle (Total)
system.cpu0.fetch.branchRate                 0.090226                       # Number of branch fetches per cycle
system.cpu0.fetch.rate                       0.891145                       # Number of inst fetches per cycle
system.cpu0.decode.IdleCycles                   16110                       # Number of cycles decode is idle
system.cpu0.decode.BlockedCycles                80719                       # Number of cycles decode is blocked
system.cpu0.decode.RunCycles                    97100                       # Number of cycles decode is running
system.cpu0.decode.UnblockCycles                 3104                       # Number of cycles decode is unblocking
system.cpu0.decode.SquashCycles                  1319                       # Number of cycles decode is squashing
system.cpu0.decode.BranchResolved                 968                       # Number of times decode resolved a branch
system.cpu0.decode.BranchMispred                  347                       # Number of times decode detected a branch misprediction
system.cpu0.decode.DecodedInsts                218411                       # Number of instructions handled by decode
system.cpu0.decode.SquashedInsts                 5685                       # Number of squashed instructions handled by decode
system.cpu0.rename.SquashCycles                  1319                       # Number of cycles rename is squashing
system.cpu0.rename.IdleCycles                   21517                       # Number of cycles rename is idle
system.cpu0.rename.BlockCycles                   6005                       # Number of cycles rename is blocking
system.cpu0.rename.serializeStallCycles          8078                       # count of cycles rename stalled for serializing inst
system.cpu0.rename.RunCycles                    94749                       # Number of cycles rename is running
system.cpu0.rename.UnblockCycles                66684                       # Number of cycles rename is unblocking
system.cpu0.rename.RenamedInsts                213676                       # Number of instructions processed by rename
system.cpu0.rename.SquashedInsts                 2047                       # Number of squashed instructions processed by rename
system.cpu0.rename.ROBFullEvents                  116                       # Number of times rename has blocked due to ROB full
system.cpu0.rename.IQFullEvents                    12                       # Number of times rename has blocked due to IQ full
system.cpu0.rename.LQFullEvents                     1                       # Number of times rename has blocked due to LQ full
system.cpu0.rename.SQFullEvents                 65247                       # Number of times rename has blocked due to SQ full
system.cpu0.rename.RenamedOperands             260017                       # Number of destination operands rename has renamed
system.cpu0.rename.RenameLookups              1058935                       # Number of register rename lookups that rename has made
system.cpu0.rename.int_rename_lookups          339462                       # Number of integer rename lookups
system.cpu0.rename.fp_rename_lookups               22                       # Number of floating rename lookups
system.cpu0.rename.CommittedMaps               246103                       # Number of HB maps that are committed
system.cpu0.rename.UndoneMaps                   13914                       # Number of HB maps that are undone due to squashing
system.cpu0.rename.serializingInsts               119                       # count of serializing insts renamed
system.cpu0.rename.tempSerializingInsts           116                       # count of temporary serializing insts renamed
system.cpu0.rename.skidInsts                     6750                       # count of insts added to the skid buffer
system.cpu0.memDep0.insertedLoads               39397                       # Number of loads inserted to the mem dependence unit.
system.cpu0.memDep0.insertedStores              21772                       # Number of stores inserted to the mem dependence unit.
system.cpu0.memDep0.conflictingLoads              262                       # Number of conflicting loads.
system.cpu0.memDep0.conflictingStores             138                       # Number of conflicting stores.
system.cpu0.iq.iqInstsAdded                    211465                       # Number of instructions added to the IQ (excludes non-spec)
system.cpu0.iq.iqNonSpecInstsAdded                257                       # Number of non-speculative instructions added to the IQ
system.cpu0.iq.iqInstsIssued                   207945                       # Number of instructions issued
system.cpu0.iq.iqSquashedInstsIssued              630                       # Number of squashed instructions issued
system.cpu0.iq.iqSquashedInstsExamined          10874                       # Number of squashed instructions iterated over during squash; mainly for profiling
system.cpu0.iq.iqSquashedOperandsExamined        27220                       # Number of squashed operands that are examined and possibly removed from graph
system.cpu0.iq.iqSquashedNonSpecRemoved            49                       # Number of squashed non-spec instructions that were removed
system.cpu0.iq.issued_per_cycle::samples       198352                       # Number of insts issued each cycle
system.cpu0.iq.issued_per_cycle::mean        1.048364                       # Number of insts issued each cycle
system.cpu0.iq.issued_per_cycle::stdev       1.266284                       # Number of insts issued each cycle
system.cpu0.iq.issued_per_cycle::underflows            0      0.00%      0.00% # Number of insts issued each cycle
system.cpu0.iq.issued_per_cycle::0             105543     53.21%     53.21% # Number of insts issued each cycle
system.cpu0.iq.issued_per_cycle::1              24135     12.17%     65.38% # Number of insts issued each cycle
system.cpu0.iq.issued_per_cycle::2              24665     12.43%     77.81% # Number of insts issued each cycle
system.cpu0.iq.issued_per_cycle::3              41559     20.95%     98.76% # Number of insts issued each cycle
system.cpu0.iq.issued_per_cycle::4               2447      1.23%    100.00% # Number of insts issued each cycle
system.cpu0.iq.issued_per_cycle::5                  3      0.00%    100.00% # Number of insts issued each cycle
system.cpu0.iq.issued_per_cycle::6                  0      0.00%    100.00% # Number of insts issued each cycle
system.cpu0.iq.issued_per_cycle::7                  0      0.00%    100.00% # Number of insts issued each cycle
system.cpu0.iq.issued_per_cycle::8                  0      0.00%    100.00% # Number of insts issued each cycle
system.cpu0.iq.issued_per_cycle::overflows            0      0.00%    100.00% # Number of insts issued each cycle
system.cpu0.iq.issued_per_cycle::min_value            0                       # Number of insts issued each cycle
system.cpu0.iq.issued_per_cycle::max_value            5                       # Number of insts issued each cycle
system.cpu0.iq.issued_per_cycle::total         198352                       # Number of insts issued each cycle
system.cpu0.iq.fu_full::No_OpClass                  0      0.00%      0.00% # attempts to use FU when none available
system.cpu0.iq.fu_full::IntAlu                   3813     12.27%     12.27% # attempts to use FU when none available
system.cpu0.iq.fu_full::IntMult                   390      1.25%     13.52% # attempts to use FU when none available
system.cpu0.iq.fu_full::IntDiv                      0      0.00%     13.52% # attempts to use FU when none available
system.cpu0.iq.fu_full::FloatAdd                    0      0.00%     13.52% # attempts to use FU when none available
system.cpu0.iq.fu_full::FloatCmp                    0      0.00%     13.52% # attempts to use FU when none available
system.cpu0.iq.fu_full::FloatCvt                    0      0.00%     13.52% # attempts to use FU when none available
system.cpu0.iq.fu_full::FloatMult                   0      0.00%     13.52% # attempts to use FU when none available
system.cpu0.iq.fu_full::FloatDiv                    0      0.00%     13.52% # attempts to use FU when none available
system.cpu0.iq.fu_full::FloatSqrt                   0      0.00%     13.52% # attempts to use FU when none available
system.cpu0.iq.fu_full::SimdAdd                     0      0.00%     13.52% # attempts to use FU when none available
system.cpu0.iq.fu_full::SimdAddAcc                  0      0.00%     13.52% # attempts to use FU when none available
system.cpu0.iq.fu_full::SimdAlu                     0      0.00%     13.52% # attempts to use FU when none available
system.cpu0.iq.fu_full::SimdCmp                     0      0.00%     13.52% # attempts to use FU when none available
system.cpu0.iq.fu_full::SimdCvt                     0      0.00%     13.52% # attempts to use FU when none available
system.cpu0.iq.fu_full::SimdMisc                    0      0.00%     13.52% # attempts to use FU when none available
system.cpu0.iq.fu_full::SimdMult                    0      0.00%     13.52% # attempts to use FU when none available
system.cpu0.iq.fu_full::SimdMultAcc                 0      0.00%     13.52% # attempts to use FU when none available
system.cpu0.iq.fu_full::SimdShift                   0      0.00%     13.52% # attempts to use FU when none available
system.cpu0.iq.fu_full::SimdShiftAcc                0      0.00%     13.52% # attempts to use FU when none available
system.cpu0.iq.fu_full::SimdSqrt                    0      0.00%     13.52% # attempts to use FU when none available
system.cpu0.iq.fu_full::SimdFloatAdd                0      0.00%     13.52% # attempts to use FU when none available
system.cpu0.iq.fu_full::SimdFloatAlu                0      0.00%     13.52% # attempts to use FU when none available
system.cpu0.iq.fu_full::SimdFloatCmp                0      0.00%     13.52% # attempts to use FU when none available
system.cpu0.iq.fu_full::SimdFloatCvt                0      0.00%     13.52% # attempts to use FU when none available
system.cpu0.iq.fu_full::SimdFloatDiv                0      0.00%     13.52% # attempts to use FU when none available
system.cpu0.iq.fu_full::SimdFloatMisc               0      0.00%     13.52% # attempts to use FU when none available
system.cpu0.iq.fu_full::SimdFloatMult               0      0.00%     13.52% # attempts to use FU when none available
system.cpu0.iq.fu_full::SimdFloatMultAcc            0      0.00%     13.52% # attempts to use FU when none available
system.cpu0.iq.fu_full::SimdFloatSqrt               0      0.00%     13.52% # attempts to use FU when none available
system.cpu0.iq.fu_full::MemRead                 18127     58.33%     71.85% # attempts to use FU when none available
system.cpu0.iq.fu_full::MemWrite                 8749     28.15%    100.00% # attempts to use FU when none available
system.cpu0.iq.fu_full::IprAccess                   0      0.00%    100.00% # attempts to use FU when none available
system.cpu0.iq.fu_full::InstPrefetch                0      0.00%    100.00% # attempts to use FU when none available
system.cpu0.iq.FU_type_0::No_OpClass                0      0.00%      0.00% # Type of FU issued
system.cpu0.iq.FU_type_0::IntAlu               120587     57.99%     57.99% # Type of FU issued
system.cpu0.iq.FU_type_0::IntMult               27312     13.13%     71.12% # Type of FU issued
system.cpu0.iq.FU_type_0::IntDiv                    0      0.00%     71.12% # Type of FU issued
system.cpu0.iq.FU_type_0::FloatAdd                  0      0.00%     71.12% # Type of FU issued
system.cpu0.iq.FU_type_0::FloatCmp                  0      0.00%     71.12% # Type of FU issued
system.cpu0.iq.FU_type_0::FloatCvt                  0      0.00%     71.12% # Type of FU issued
system.cpu0.iq.FU_type_0::FloatMult                 0      0.00%     71.12% # Type of FU issued
system.cpu0.iq.FU_type_0::FloatDiv                  0      0.00%     71.12% # Type of FU issued
system.cpu0.iq.FU_type_0::FloatSqrt                 0      0.00%     71.12% # Type of FU issued
system.cpu0.iq.FU_type_0::SimdAdd                   0      0.00%     71.12% # Type of FU issued
system.cpu0.iq.FU_type_0::SimdAddAcc                0      0.00%     71.12% # Type of FU issued
system.cpu0.iq.FU_type_0::SimdAlu                   0      0.00%     71.12% # Type of FU issued
system.cpu0.iq.FU_type_0::SimdCmp                   0      0.00%     71.12% # Type of FU issued
system.cpu0.iq.FU_type_0::SimdCvt                   0      0.00%     71.12% # Type of FU issued
system.cpu0.iq.FU_type_0::SimdMisc                  0      0.00%     71.12% # Type of FU issued
system.cpu0.iq.FU_type_0::SimdMult                  0      0.00%     71.12% # Type of FU issued
system.cpu0.iq.FU_type_0::SimdMultAcc               0      0.00%     71.12% # Type of FU issued
system.cpu0.iq.FU_type_0::SimdShift                 0      0.00%     71.12% # Type of FU issued
system.cpu0.iq.FU_type_0::SimdShiftAcc              0      0.00%     71.12% # Type of FU issued
system.cpu0.iq.FU_type_0::SimdSqrt                  0      0.00%     71.12% # Type of FU issued
system.cpu0.iq.FU_type_0::SimdFloatAdd              0      0.00%     71.12% # Type of FU issued
system.cpu0.iq.FU_type_0::SimdFloatAlu              0      0.00%     71.12% # Type of FU issued
system.cpu0.iq.FU_type_0::SimdFloatCmp              0      0.00%     71.12% # Type of FU issued
system.cpu0.iq.FU_type_0::SimdFloatCvt              0      0.00%     71.12% # Type of FU issued
system.cpu0.iq.FU_type_0::SimdFloatDiv              0      0.00%     71.12% # Type of FU issued
system.cpu0.iq.FU_type_0::SimdFloatMisc             3      0.00%     71.13% # Type of FU issued
system.cpu0.iq.FU_type_0::SimdFloatMult             0      0.00%     71.13% # Type of FU issued
system.cpu0.iq.FU_type_0::SimdFloatMultAcc            0      0.00%     71.13% # Type of FU issued
system.cpu0.iq.FU_type_0::SimdFloatSqrt             0      0.00%     71.13% # Type of FU issued
system.cpu0.iq.FU_type_0::MemRead               38820     18.67%     89.79% # Type of FU issued
system.cpu0.iq.FU_type_0::MemWrite              21223     10.21%    100.00% # Type of FU issued
system.cpu0.iq.FU_type_0::IprAccess                 0      0.00%    100.00% # Type of FU issued
system.cpu0.iq.FU_type_0::InstPrefetch              0      0.00%    100.00% # Type of FU issued
system.cpu0.iq.FU_type_0::total                207945                       # Type of FU issued
system.cpu0.iq.rate                          0.870908                       # Inst issue rate
system.cpu0.iq.fu_busy_cnt                      31079                       # FU busy when requested
system.cpu0.iq.fu_busy_rate                  0.149458                       # FU busy rate (busy events/executed inst)
system.cpu0.iq.int_inst_queue_reads            645875                       # Number of integer instruction queue reads
system.cpu0.iq.int_inst_queue_writes           222584                       # Number of integer instruction queue writes
system.cpu0.iq.int_inst_queue_wakeup_accesses       204827                       # Number of integer instruction queue wakeup accesses
system.cpu0.iq.fp_inst_queue_reads                 76                       # Number of floating instruction queue reads
system.cpu0.iq.fp_inst_queue_writes                28                       # Number of floating instruction queue writes
system.cpu0.iq.fp_inst_queue_wakeup_accesses           28                       # Number of floating instruction queue wakeup accesses
system.cpu0.iq.int_alu_accesses                238976                       # Number of integer alu accesses
system.cpu0.iq.fp_alu_accesses                     48                       # Number of floating point alu accesses
system.cpu0.iew.lsq.thread0.forwLoads              54                       # Number of loads that had data forwarded from stores
system.cpu0.iew.lsq.thread0.invAddrLoads            0                       # Number of loads ignored due to an invalid address
system.cpu0.iew.lsq.thread0.squashedLoads         2757                       # Number of loads squashed
system.cpu0.iew.lsq.thread0.ignoredResponses            1                       # Number of memory responses ignored because the instruction is squashed
system.cpu0.iew.lsq.thread0.memOrderViolation           17                       # Number of memory ordering violations
system.cpu0.iew.lsq.thread0.squashedStores         1081                       # Number of stores squashed
system.cpu0.iew.lsq.thread0.invAddrSwpfs            0                       # Number of software prefetches ignored due to an invalid address
system.cpu0.iew.lsq.thread0.blockedLoads            0                       # Number of blocked loads due to partial load-store forwarding
system.cpu0.iew.lsq.thread0.rescheduledLoads           18                       # Number of loads that were rescheduled
system.cpu0.iew.lsq.thread0.cacheBlocked          724                       # Number of times an access to memory failed due to the cache being blocked
system.cpu0.iew.iewIdleCycles                       0                       # Number of cycles IEW is idle
system.cpu0.iew.iewSquashCycles                  1319                       # Number of cycles IEW is squashing
system.cpu0.iew.iewBlockCycles                    627                       # Number of cycles IEW is blocking
system.cpu0.iew.iewUnblockCycles                 2808                       # Number of cycles IEW is unblocking
system.cpu0.iew.iewDispatchedInsts             211737                       # Number of instructions dispatched to IQ
system.cpu0.iew.iewDispSquashedInsts                0                       # Number of squashed instructions skipped by dispatch
system.cpu0.iew.iewDispLoadInsts                39397                       # Number of dispatched load instructions
system.cpu0.iew.iewDispStoreInsts               21772                       # Number of dispatched store instructions
system.cpu0.iew.iewDispNonSpecInsts               114                       # Number of dispatched non-speculative instructions
system.cpu0.iew.iewIQFullEvents                     5                       # Number of times the IQ has become full, causing a stall
system.cpu0.iew.iewLSQFullEvents                 2801                       # Number of times the LSQ has become full, causing a stall
system.cpu0.iew.memOrderViolationEvents            17                       # Number of memory order violations
system.cpu0.iew.predictedTakenIncorrect           323                       # Number of branches that were predicted taken incorrectly
system.cpu0.iew.predictedNotTakenIncorrect         1011                       # Number of branches that were predicted not taken incorrectly
system.cpu0.iew.branchMispredicts                1334                       # Number of branch mispredicts detected at execute
system.cpu0.iew.iewExecutedInsts               205695                       # Number of executed instructions
system.cpu0.iew.iewExecLoadInsts                37928                       # Number of load instructions executed
system.cpu0.iew.iewExecSquashedInsts             2250                       # Number of squashed instructions skipped in execute
system.cpu0.iew.exec_swp                            0                       # number of swp insts executed
system.cpu0.iew.exec_nop                           15                       # number of nop insts executed
system.cpu0.iew.exec_refs                       58941                       # number of memory reference insts executed
system.cpu0.iew.exec_branches                   17662                       # Number of branches executed
system.cpu0.iew.exec_stores                     21013                       # Number of stores executed
system.cpu0.iew.exec_rate                    0.861485                       # Inst execution rate
system.cpu0.iew.wb_sent                        205006                       # cumulative count of insts sent to commit
system.cpu0.iew.wb_count                       204855                       # cumulative count of insts written-back
[...]
system.cpu7.icache.overall_miss_latency::total      4363750                       # number of overall miss cycles
system.cpu7.icache.ReadReq_accesses::cpu7.inst        38191                       # number of ReadReq accesses(hits+misses)
system.cpu7.icache.ReadReq_accesses::total        38191                       # number of ReadReq accesses(hits+misses)
system.cpu7.icache.demand_accesses::cpu7.inst        38191                       # number of demand (read+write) accesses
system.cpu7.icache.demand_accesses::total        38191                       # number of demand (read+write) accesses
system.cpu7.icache.overall_accesses::cpu7.inst        38191                       # number of overall (read+write) accesses
system.cpu7.icache.overall_accesses::total        38191                       # number of overall (read+write) accesses
system.cpu7.icache.ReadReq_miss_rate::cpu7.inst     0.001676                       # miss rate for ReadReq accesses
system.cpu7.icache.ReadReq_miss_rate::total     0.001676                       # miss rate for ReadReq accesses
system.cpu7.icache.demand_miss_rate::cpu7.inst     0.001676                       # miss rate for demand accesses
system.cpu7.icache.demand_miss_rate::total     0.001676                       # miss rate for demand accesses
system.cpu7.icache.overall_miss_rate::cpu7.inst     0.001676                       # miss rate for overall accesses
system.cpu7.icache.overall_miss_rate::total     0.001676                       # miss rate for overall accesses
system.cpu7.icache.ReadReq_avg_miss_latency::cpu7.inst 68183.593750                       # average ReadReq miss latency
system.cpu7.icache.ReadReq_avg_miss_latency::total 68183.593750                       # average ReadReq miss latency
system.cpu7.icache.demand_avg_miss_latency::cpu7.inst 68183.593750                       # average overall miss latency
system.cpu7.icache.demand_avg_miss_latency::total 68183.593750                       # average overall miss latency
system.cpu7.icache.overall_avg_miss_latency::cpu7.inst 68183.593750                       # average overall miss latency
system.cpu7.icache.overall_avg_miss_latency::total 68183.593750                       # average overall miss latency
system.cpu7.icache.blocked_cycles::no_mshrs         1361                       # number of cycles access was blocked
system.cpu7.icache.blocked_cycles::no_targets            0                       # number of cycles access was blocked
system.cpu7.icache.blocked::no_mshrs               12                       # number of cycles access was blocked
system.cpu7.icache.blocked::no_targets              0                       # number of cycles access was blocked
system.cpu7.icache.avg_blocked_cycles::no_mshrs   113.416667                       # average number of cycles each access was blocked
system.cpu7.icache.avg_blocked_cycles::no_targets          nan                       # average number of cycles each access was blocked
system.cpu7.icache.fast_writes                      0                       # number of fast writes performed
system.cpu7.icache.cache_copies                     0                       # number of cache copies performed
system.cpu7.icache.ReadReq_mshr_hits::cpu7.inst           11                       # number of ReadReq MSHR hits
system.cpu7.icache.ReadReq_mshr_hits::total           11                       # number of ReadReq MSHR hits
system.cpu7.icache.demand_mshr_hits::cpu7.inst           11                       # number of demand (read+write) MSHR hits
system.cpu7.icache.demand_mshr_hits::total           11                       # number of demand (read+write) MSHR hits
system.cpu7.icache.overall_mshr_hits::cpu7.inst           11                       # number of overall MSHR hits
system.cpu7.icache.overall_mshr_hits::total           11                       # number of overall MSHR hits
system.cpu7.icache.ReadReq_mshr_misses::cpu7.inst           53                       # number of ReadReq MSHR misses
system.cpu7.icache.ReadReq_mshr_misses::total           53                       # number of ReadReq MSHR misses
system.cpu7.icache.demand_mshr_misses::cpu7.inst           53                       # number of demand (read+write) MSHR misses
system.cpu7.icache.demand_mshr_misses::total           53                       # number of demand (read+write) MSHR misses
system.cpu7.icache.overall_mshr_misses::cpu7.inst           53                       # number of overall MSHR misses
system.cpu7.icache.overall_mshr_misses::total           53                       # number of overall MSHR misses
system.cpu7.icache.ReadReq_mshr_miss_latency::cpu7.inst      3670750                       # number of ReadReq MSHR miss cycles
system.cpu7.icache.ReadReq_mshr_miss_latency::total      3670750                       # number of ReadReq MSHR miss cycles
system.cpu7.icache.demand_mshr_miss_latency::cpu7.inst      3670750                       # number of demand (read+write) MSHR miss cycles
system.cpu7.icache.demand_mshr_miss_latency::total      3670750                       # number of demand (read+write) MSHR miss cycles
system.cpu7.icache.overall_mshr_miss_latency::cpu7.inst      3670750                       # number of overall MSHR miss cycles
system.cpu7.icache.overall_mshr_miss_latency::total      3670750                       # number of overall MSHR miss cycles
system.cpu7.icache.ReadReq_mshr_miss_rate::cpu7.inst     0.001388                       # mshr miss rate for ReadReq accesses
system.cpu7.icache.ReadReq_mshr_miss_rate::total     0.001388                       # mshr miss rate for ReadReq accesses
system.cpu7.icache.demand_mshr_miss_rate::cpu7.inst     0.001388                       # mshr miss rate for demand accesses
system.cpu7.icache.demand_mshr_miss_rate::total     0.001388                       # mshr miss rate for demand accesses
system.cpu7.icache.overall_mshr_miss_rate::cpu7.inst     0.001388                       # mshr miss rate for overall accesses
system.cpu7.icache.overall_mshr_miss_rate::total     0.001388                       # mshr miss rate for overall accesses
system.cpu7.icache.ReadReq_avg_mshr_miss_latency::cpu7.inst 69259.433962                       # average ReadReq mshr miss latency
system.cpu7.icache.ReadReq_avg_mshr_miss_latency::total 69259.433962                       # average ReadReq mshr miss latency
system.cpu7.icache.demand_avg_mshr_miss_latency::cpu7.inst 69259.433962                       # average overall mshr miss latency
system.cpu7.icache.demand_avg_mshr_miss_latency::total 69259.433962                       # average overall mshr miss latency
system.cpu7.icache.overall_avg_mshr_miss_latency::cpu7.inst 69259.433962                       # average overall mshr miss latency
system.cpu7.icache.overall_avg_mshr_miss_latency::total 69259.433962                       # average overall mshr miss latency
system.cpu7.icache.no_allocate_misses               0                       # Number of misses that were no-allocate
system.membus.trans_dist::ReadReq                2987                       # Transaction distribution
system.membus.trans_dist::ReadResp               2985                       # Transaction distribution
system.membus.trans_dist::ReadRespWithInvalidate            1                       # Transaction distribution
system.membus.trans_dist::Writeback                93                       # Transaction distribution
system.membus.trans_dist::UpgradeReq               14                       # Transaction distribution
system.membus.trans_dist::SCUpgradeReq             22                       # Transaction distribution
system.membus.trans_dist::UpgradeResp              36                       # Transaction distribution
system.membus.trans_dist::SCUpgradeFailReq            4                       # Transaction distribution
system.membus.trans_dist::UpgradeFailResp            4                       # Transaction distribution
system.membus.trans_dist::ReadExReq               996                       # Transaction distribution
system.membus.trans_dist::ReadExResp              996                       # Transaction distribution
system.membus.pkt_count_system.cpu0.icache.mem_side::system.mem_ctrls.port         1251                       # Packet count per connected master and slave (bytes)
system.membus.pkt_count_system.cpu0.dcache.mem_side::system.mem_ctrls.port         2014                       # Packet count per connected master and slave (bytes)
system.membus.pkt_count_system.cpu1.icache.mem_side::system.mem_ctrls.port          100                       # Packet count per connected master and slave (bytes)
system.membus.pkt_count_system.cpu1.dcache.mem_side::system.mem_ctrls.port          313                       # Packet count per connected master and slave (bytes)
system.membus.pkt_count_system.cpu2.icache.mem_side::system.mem_ctrls.port          104                       # Packet count per connected master and slave (bytes)
system.membus.pkt_count_system.cpu2.dcache.mem_side::system.mem_ctrls.port          318                       # Packet count per connected master and slave (bytes)
system.membus.pkt_count_system.cpu3.icache.mem_side::system.mem_ctrls.port          106                       # Packet count per connected master and slave (bytes)
system.membus.pkt_count_system.cpu3.dcache.mem_side::system.mem_ctrls.port          319                       # Packet count per connected master and slave (bytes)
system.membus.pkt_count_system.cpu4.icache.mem_side::system.mem_ctrls.port          100                       # Packet count per connected master and slave (bytes)
system.membus.pkt_count_system.cpu4.dcache.mem_side::system.mem_ctrls.port          326                       # Packet count per connected master and slave (bytes)
system.membus.pkt_count_system.cpu5.icache.mem_side::system.mem_ctrls.port          108                       # Packet count per connected master and slave (bytes)
system.membus.pkt_count_system.cpu5.dcache.mem_side::system.mem_ctrls.port          321                       # Packet count per connected master and slave (bytes)
system.membus.pkt_count_system.cpu6.icache.mem_side::system.mem_ctrls.port          110                       # Packet count per connected master and slave (bytes)
system.membus.pkt_count_system.cpu6.dcache.mem_side::system.mem_ctrls.port          318                       # Packet count per connected master and slave (bytes)
system.membus.pkt_count_system.cpu7.icache.mem_side::system.mem_ctrls.port          106                       # Packet count per connected master and slave (bytes)
system.membus.pkt_count_system.cpu7.dcache.mem_side::system.mem_ctrls.port          316                       # Packet count per connected master and slave (bytes)
system.membus.pkt_count::total                   6230                       # Packet count per connected master and slave (bytes)
system.membus.pkt_size_system.cpu0.icache.mem_side::system.mem_ctrls.port        40000                       # Cumulative packet size per connected master and slave (bytes)
system.membus.pkt_size_system.cpu0.dcache.mem_side::system.mem_ctrls.port        66816                       # Cumulative packet size per connected master and slave (bytes)
system.membus.pkt_size_system.cpu1.icache.mem_side::system.mem_ctrls.port         3200                       # Cumulative packet size per connected master and slave (bytes)
system.membus.pkt_size_system.cpu1.dcache.mem_side::system.mem_ctrls.port         1280                       # Cumulative packet size per connected master and slave (bytes)
system.membus.pkt_size_system.cpu2.icache.mem_side::system.mem_ctrls.port         3328                       # Cumulative packet size per connected master and slave (bytes)
system.membus.pkt_size_system.cpu2.dcache.mem_side::system.mem_ctrls.port         1280                       # Cumulative packet size per connected master and slave (bytes)
system.membus.pkt_size_system.cpu3.icache.mem_side::system.mem_ctrls.port         3392                       # Cumulative packet size per connected master and slave (bytes)
system.membus.pkt_size_system.cpu3.dcache.mem_side::system.mem_ctrls.port         1408                       # Cumulative packet size per connected master and slave (bytes)
system.membus.pkt_size_system.cpu4.icache.mem_side::system.mem_ctrls.port         3200                       # Cumulative packet size per connected master and slave (bytes)
system.membus.pkt_size_system.cpu4.dcache.mem_side::system.mem_ctrls.port         1984                       # Cumulative packet size per connected master and slave (bytes)
system.membus.pkt_size_system.cpu5.icache.mem_side::system.mem_ctrls.port         3456                       # Cumulative packet size per connected master and slave (bytes)
system.membus.pkt_size_system.cpu5.dcache.mem_side::system.mem_ctrls.port         1536                       # Cumulative packet size per connected master and slave (bytes)
system.membus.pkt_size_system.cpu6.icache.mem_side::system.mem_ctrls.port         3520                       # Cumulative packet size per connected master and slave (bytes)
system.membus.pkt_size_system.cpu6.dcache.mem_side::system.mem_ctrls.port         1536                       # Cumulative packet size per connected master and slave (bytes)
system.membus.pkt_size_system.cpu7.icache.mem_side::system.mem_ctrls.port         3392                       # Cumulative packet size per connected master and slave (bytes)
system.membus.pkt_size_system.cpu7.dcache.mem_side::system.mem_ctrls.port         1536                       # Cumulative packet size per connected master and slave (bytes)
system.membus.pkt_size::total                  140864                       # Cumulative packet size per connected master and slave (bytes)
system.membus.snoops                             1908                       # Total snoops (count)
system.membus.snoop_fanout::samples              4116                       # Request fanout histogram
system.membus.snoop_fanout::mean                   15                       # Request fanout histogram
system.membus.snoop_fanout::stdev                   0                       # Request fanout histogram
system.membus.snoop_fanout::underflows              0      0.00%      0.00% # Request fanout histogram
system.membus.snoop_fanout::0                       0      0.00%      0.00% # Request fanout histogram
system.membus.snoop_fanout::1                       0      0.00%      0.00% # Request fanout histogram
system.membus.snoop_fanout::2                       0      0.00%      0.00% # Request fanout histogram
system.membus.snoop_fanout::3                       0      0.00%      0.00% # Request fanout histogram
system.membus.snoop_fanout::4                       0      0.00%      0.00% # Request fanout histogram
system.membus.snoop_fanout::5                       0      0.00%      0.00% # Request fanout histogram
system.membus.snoop_fanout::6                       0      0.00%      0.00% # Request fanout histogram
system.membus.snoop_fanout::7                       0      0.00%      0.00% # Request fanout histogram
system.membus.snoop_fanout::8                       0      0.00%      0.00% # Request fanout histogram
system.membus.snoop_fanout::9                       0      0.00%      0.00% # Request fanout histogram
system.membus.snoop_fanout::10                      0      0.00%      0.00% # Request fanout histogram
system.membus.snoop_fanout::11                      0      0.00%      0.00% # Request fanout histogram
system.membus.snoop_fanout::12                      0      0.00%      0.00% # Request fanout histogram
system.membus.snoop_fanout::13                      0      0.00%      0.00% # Request fanout histogram
system.membus.snoop_fanout::14                      0      0.00%      0.00% # Request fanout histogram
system.membus.snoop_fanout::15                   4116    100.00%    100.00% # Request fanout histogram
system.membus.snoop_fanout::16                      0      0.00%    100.00% # Request fanout histogram
system.membus.snoop_fanout::overflows               0      0.00%    100.00% # Request fanout histogram
system.membus.snoop_fanout::min_value              15                       # Request fanout histogram
system.membus.snoop_fanout::max_value              15                       # Request fanout histogram
system.membus.snoop_fanout::total                4116                       # Request fanout histogram
system.membus.reqLayer0.occupancy             5430999                       # Layer occupancy (ticks)
system.membus.reqLayer0.utilization               4.5                       # Layer utilization (%)
system.membus.respLayer1.occupancy            3329250                       # Layer occupancy (ticks)
system.membus.respLayer1.utilization              2.8                       # Layer utilization (%)
system.membus.respLayer2.occupancy            5083744                       # Layer occupancy (ticks)
system.membus.respLayer2.utilization              4.3                       # Layer utilization (%)
system.membus.respLayer5.occupancy             270000                       # Layer occupancy (ticks)
system.membus.respLayer5.utilization              0.2                       # Layer utilization (%)
system.membus.respLayer6.occupancy            1480705                       # Layer occupancy (ticks)
system.membus.respLayer6.utilization              1.2                       # Layer utilization (%)
system.membus.respLayer9.occupancy             279500                       # Layer occupancy (ticks)
system.membus.respLayer9.utilization              0.2                       # Layer utilization (%)
system.membus.respLayer10.occupancy           1554116                       # Layer occupancy (ticks)
system.membus.respLayer10.utilization             1.3                       # Layer utilization (%)
system.membus.respLayer13.occupancy            283750                       # Layer occupancy (ticks)
system.membus.respLayer13.utilization             0.2                       # Layer utilization (%)
system.membus.respLayer14.occupancy           1546150                       # Layer occupancy (ticks)
system.membus.respLayer14.utilization             1.3                       # Layer utilization (%)
system.membus.respLayer17.occupancy            270500                       # Layer occupancy (ticks)
system.membus.respLayer17.utilization             0.2                       # Layer utilization (%)
system.membus.respLayer18.occupancy           1545634                       # Layer occupancy (ticks)
system.membus.respLayer18.utilization             1.3                       # Layer utilization (%)
system.membus.respLayer21.occupancy            289500                       # Layer occupancy (ticks)
system.membus.respLayer21.utilization             0.2                       # Layer utilization (%)
system.membus.respLayer22.occupancy           1554113                       # Layer occupancy (ticks)
system.membus.respLayer22.utilization             1.3                       # Layer utilization (%)
system.membus.respLayer25.occupancy            295250                       # Layer occupancy (ticks)
system.membus.respLayer25.utilization             0.2                       # Layer utilization (%)
system.membus.respLayer26.occupancy           1523643                       # Layer occupancy (ticks)
system.membus.respLayer26.utilization             1.3                       # Layer utilization (%)
system.membus.respLayer29.occupancy            284250                       # Layer occupancy (ticks)
system.membus.respLayer29.utilization             0.2                       # Layer utilization (%)
system.membus.respLayer30.occupancy           1471211                       # Layer occupancy (ticks)
system.membus.respLayer30.utilization             1.2                       # Layer utilization (%)

---------- End Simulation Statistics   ----------
