
---------- Begin Simulation Statistics ----------
sim_seconds                                  0.000128                       # Number of seconds simulated
sim_ticks                                   128257000                       # Number of ticks simulated
final_tick                                  128257000                       # Number of ticks from beginning of simulation (restored from checkpoints and never reset)
sim_freq                                 1000000000000                       # Frequency of simulated ticks
host_inst_rate                                 152287                       # Simulator instruction rate (inst/s)
host_op_rate                                   154638                       # Simulator op (including micro ops) rate (op/s)
host_tick_rate                               18096384                       # Simulator tick rate (ticks/s)
host_mem_usage                                 648204                       # Number of bytes of host memory used
host_seconds                                     7.09                       # Real time elapsed on the host
sim_insts                                     1079320                       # Number of instructions simulated
sim_ops                                       1095982                       # Number of ops (including micro ops) simulated
system.voltage_domain.voltage                       1                       # Voltage in Volts
system.clk_domain.clock                          1000                       # Clock period in ticks
system.mem_ctrls.bytes_read::cpu0.inst          38848                       # Number of bytes read from this memory
system.mem_ctrls.bytes_read::cpu0.data          60224                       # Number of bytes read from this memory
system.mem_ctrls.bytes_read::cpu1.inst           3264                       # Number of bytes read from this memory
system.mem_ctrls.bytes_read::cpu1.data           1472                       # Number of bytes read from this memory
system.mem_ctrls.bytes_read::cpu2.inst           3456                       # Number of bytes read from this memory
system.mem_ctrls.bytes_read::cpu2.data           2176                       # Number of bytes read from this memory
system.mem_ctrls.bytes_read::cpu3.inst           3200                       # Number of bytes read from this memory
system.mem_ctrls.bytes_read::cpu3.data           1856                       # Number of bytes read from this memory
system.mem_ctrls.bytes_read::total             114496                       # Number of bytes read from this memory
system.mem_ctrls.bytes_inst_read::cpu0.inst        38848                       # Number of instructions bytes read from this memory
system.mem_ctrls.bytes_inst_read::cpu1.inst         3264                       # Number of instructions bytes read from this memory
system.mem_ctrls.bytes_inst_read::cpu2.inst         3456                       # Number of instructions bytes read from this memory
system.mem_ctrls.bytes_inst_read::cpu3.inst         3200                       # Number of instructions bytes read from this memory
system.mem_ctrls.bytes_inst_read::total         48768                       # Number of instructions bytes read from this memory
system.mem_ctrls.bytes_written::writebacks         5504                       # Number of bytes written to this memory
system.mem_ctrls.bytes_written::total            5504                       # Number of bytes written to this memory
system.mem_ctrls.num_reads::cpu0.inst             607                       # Number of read requests responded to by this memory
system.mem_ctrls.num_reads::cpu0.data             941                       # Number of read requests responded to by this memory
system.mem_ctrls.num_reads::cpu1.inst              51                       # Number of read requests responded to by this memory
system.mem_ctrls.num_reads::cpu1.data              23                       # Number of read requests responded to by this memory
system.mem_ctrls.num_reads::cpu2.inst              54                       # Number of read requests responded to by this memory
system.mem_ctrls.num_reads::cpu2.data              34                       # Number of read requests responded to by this memory
system.mem_ctrls.num_reads::cpu3.inst              50                       # Number of read requests responded to by this memory
system.mem_ctrls.num_reads::cpu3.data              29                       # Number of read requests responded to by this memory
system.mem_ctrls.num_reads::total                1789                       # Number of read requests responded to by this memory
system.mem_ctrls.num_writes::writebacks            86                       # Number of write requests responded to by this memory
system.mem_ctrls.num_writes::total                 86                       # Number of write requests responded to by this memory
system.mem_ctrls.bw_read::cpu0.inst         302891850                       # Total read bandwidth from this memory (bytes/s)
system.mem_ctrls.bw_read::cpu0.data         469557217                       # Total read bandwidth from this memory (bytes/s)
system.mem_ctrls.bw_read::cpu1.inst          25448903                       # Total read bandwidth from this memory (bytes/s)
system.mem_ctrls.bw_read::cpu1.data          11476956                       # Total read bandwidth from this memory (bytes/s)
system.mem_ctrls.bw_read::cpu2.inst          26945898                       # Total read bandwidth from this memory (bytes/s)
system.mem_ctrls.bw_read::cpu2.data          16965936                       # Total read bandwidth from this memory (bytes/s)
system.mem_ctrls.bw_read::cpu3.inst          24949905                       # Total read bandwidth from this memory (bytes/s)
system.mem_ctrls.bw_read::cpu3.data          14470945                       # Total read bandwidth from this memory (bytes/s)
system.mem_ctrls.bw_read::total             892707611                       # Total read bandwidth from this memory (bytes/s)
system.mem_ctrls.bw_inst_read::cpu0.inst    302891850                       # Instruction read bandwidth from this memory (bytes/s)
system.mem_ctrls.bw_inst_read::cpu1.inst     25448903                       # Instruction read bandwidth from this memory (bytes/s)
system.mem_ctrls.bw_inst_read::cpu2.inst     26945898                       # Instruction read bandwidth from this memory (bytes/s)
system.mem_ctrls.bw_inst_read::cpu3.inst     24949905                       # Instruction read bandwidth from this memory (bytes/s)
system.mem_ctrls.bw_inst_read::total        380236556                       # Instruction read bandwidth from this memory (bytes/s)
system.mem_ctrls.bw_write::writebacks        42913837                       # Write bandwidth from this memory (bytes/s)
system.mem_ctrls.bw_write::total             42913837                       # Write bandwidth from this memory (bytes/s)
system.mem_ctrls.bw_total::writebacks        42913837                       # Total bandwidth to/from this memory (bytes/s)
system.mem_ctrls.bw_total::cpu0.inst        302891850                       # Total bandwidth to/from this memory (bytes/s)
system.mem_ctrls.bw_total::cpu0.data        469557217                       # Total bandwidth to/from this memory (bytes/s)
system.mem_ctrls.bw_total::cpu1.inst         25448903                       # Total bandwidth to/from this memory (bytes/s)
system.mem_ctrls.bw_total::cpu1.data         11476956                       # Total bandwidth to/from this memory (bytes/s)
system.mem_ctrls.bw_total::cpu2.inst         26945898                       # Total bandwidth to/from this memory (bytes/s)
system.mem_ctrls.bw_total::cpu2.data         16965936                       # Total bandwidth to/from this memory (bytes/s)
system.mem_ctrls.bw_total::cpu3.inst         24949905                       # Total bandwidth to/from this memory (bytes/s)
system.mem_ctrls.bw_total::cpu3.data         14470945                       # Total bandwidth to/from this memory (bytes/s)
system.mem_ctrls.bw_total::total            935621448                       # Total bandwidth to/from this memory (bytes/s)
system.mem_ctrls.readReqs                        1790                       # Number of read requests accepted
system.mem_ctrls.writeReqs                         86                       # Number of write requests accepted
system.mem_ctrls.readBursts                      1790                       # Number of DRAM read bursts, including those serviced by the write queue
system.mem_ctrls.writeBursts                       86                       # Number of DRAM write bursts, including those merged in the write queue
system.mem_ctrls.bytesReadDRAM                 111232                       # Total number of bytes read from DRAM
system.mem_ctrls.bytesReadWrQ                    3328                       # Total number of bytes read from write queue
system.mem_ctrls.bytesWritten                    4288                       # Total number of bytes written to DRAM
system.mem_ctrls.bytesReadSys                  114560                       # Total read bytes from the system interface side
system.mem_ctrls.bytesWrittenSys                 5504                       # Total written bytes from the system interface side
system.mem_ctrls.servicedByWrQ                     52                       # Number of DRAM read bursts serviced by the write queue
system.mem_ctrls.mergedWrBursts                     2                       # Number of DRAM write bursts merged with an existing one
system.mem_ctrls.neitherReadNorWriteReqs           14                       # Number of requests that are neither read nor write
system.mem_ctrls.perBankRdBursts::0               180                       # Per bank write bursts
system.mem_ctrls.perBankRdBursts::1               233                       # Per bank write bursts
system.mem_ctrls.perBankRdBursts::2               177                       # Per bank write bursts
system.mem_ctrls.perBankRdBursts::3               225                       # Per bank write bursts
system.mem_ctrls.perBankRdBursts::4               162                       # Per bank write bursts
system.mem_ctrls.perBankRdBursts::5               162                       # Per bank write bursts
system.mem_ctrls.perBankRdBursts::6               232                       # Per bank write bursts
system.mem_ctrls.perBankRdBursts::7               159                       # Per bank write bursts
system.mem_ctrls.perBankRdBursts::8                14                       # Per bank write bursts
system.mem_ctrls.perBankRdBursts::9                10                       # Per bank write bursts
system.mem_ctrls.perBankRdBursts::10                0                       # Per bank write bursts
system.mem_ctrls.perBankRdBursts::11               14                       # Per bank write bursts
system.mem_ctrls.perBankRdBursts::12                9                       # Per bank write bursts
system.mem_ctrls.perBankRdBursts::13               38                       # Per bank write bursts
system.mem_ctrls.perBankRdBursts::14               40                       # Per bank write bursts
system.mem_ctrls.perBankRdBursts::15               83                       # Per bank write bursts
system.mem_ctrls.perBankWrBursts::0                 2                       # Per bank write bursts
system.mem_ctrls.perBankWrBursts::1                 1                       # Per bank write bursts
system.mem_ctrls.perBankWrBursts::2                 4                       # Per bank write bursts
system.mem_ctrls.perBankWrBursts::3                15                       # Per bank write bursts
system.mem_ctrls.perBankWrBursts::4                 0                       # Per bank write bursts
system.mem_ctrls.perBankWrBursts::5                 0                       # Per bank write bursts
system.mem_ctrls.perBankWrBursts::6                 0                       # Per bank write bursts
system.mem_ctrls.perBankWrBursts::7                18                       # Per bank write bursts
system.mem_ctrls.perBankWrBursts::8                 0                       # Per bank write bursts
system.mem_ctrls.perBankWrBursts::9                 0                       # Per bank write bursts
system.mem_ctrls.perBankWrBursts::10                0                       # Per bank write bursts
system.mem_ctrls.perBankWrBursts::11                0                       # Per bank write bursts
system.mem_ctrls.perBankWrBursts::12                0                       # Per bank write bursts
system.mem_ctrls.perBankWrBursts::13                0                       # Per bank write bursts
system.mem_ctrls.perBankWrBursts::14                0                       # Per bank write bursts
system.mem_ctrls.perBankWrBursts::15               27                       # Per bank write bursts
system.mem_ctrls.numRdRetry                         0                       # Number of times read queue was full causing retry
system.mem_ctrls.numWrRetry                         0                       # Number of times write queue was full causing retry
system.mem_ctrls.totGap                     128248500                       # Total gap between requests
system.mem_ctrls.readPktSize::0                     0                       # Read request sizes (log2)
system.mem_ctrls.readPktSize::1                     0                       # Read request sizes (log2)
system.mem_ctrls.readPktSize::2                     0                       # Read request sizes (log2)
system.mem_ctrls.readPktSize::3                     0                       # Read request sizes (log2)
system.mem_ctrls.readPktSize::4                     0                       # Read request sizes (log2)
system.mem_ctrls.readPktSize::5                     0                       # Read request sizes (log2)
system.mem_ctrls.readPktSize::6                  1790                       # Read request sizes (log2)
system.mem_ctrls.writePktSize::0                    0                       # Write request sizes (log2)
system.mem_ctrls.writePktSize::1                    0                       # Write request sizes (log2)
system.mem_ctrls.writePktSize::2                    0                       # Write request sizes (log2)
system.mem_ctrls.writePktSize::3                    0                       # Write request sizes (log2)
system.mem_ctrls.writePktSize::4                    0                       # Write request sizes (log2)
system.mem_ctrls.writePktSize::5                    0                       # Write request sizes (log2)
system.mem_ctrls.writePktSize::6                   86                       # Write request sizes (log2)
system.mem_ctrls.rdQLenPdf::0                     853                       # What read queue length does an incoming req see
system.mem_ctrls.rdQLenPdf::1                     600                       # What read queue length does an incoming req see
system.mem_ctrls.rdQLenPdf::2                     128                       # What read queue length does an incoming req see
system.mem_ctrls.rdQLenPdf::3                      68                       # What read queue length does an incoming req see
system.mem_ctrls.rdQLenPdf::4                      38                       # What read queue length does an incoming req see
system.mem_ctrls.rdQLenPdf::5                      27                       # What read queue length does an incoming req see
system.mem_ctrls.rdQLenPdf::6                      16                       # What read queue length does an incoming req see
system.mem_ctrls.rdQLenPdf::7                       7                       # What read queue length does an incoming req see
system.mem_ctrls.rdQLenPdf::8                       1                       # What read queue length does an incoming req see
system.mem_ctrls.rdQLenPdf::9                       0                       # What read queue length does an incoming req see
system.mem_ctrls.rdQLenPdf::10                      0                       # What read queue length does an incoming req see
system.mem_ctrls.rdQLenPdf::11                      0                       # What read queue length does an incoming req see
system.mem_ctrls.rdQLenPdf::12                      0                       # What read queue length does an incoming req see
system.mem_ctrls.rdQLenPdf::13                      0                       # What read queue length does an incoming req see
system.mem_ctrls.rdQLenPdf::14                      0                       # What read queue length does an incoming req see
system.mem_ctrls.rdQLenPdf::15                      0                       # What read queue length does an incoming req see
system.mem_ctrls.rdQLenPdf::16                      0                       # What read queue length does an incoming req see
system.mem_ctrls.rdQLenPdf::17                      0                       # What read queue length does an incoming req see
system.mem_ctrls.rdQLenPdf::18                      0                       # What read queue length does an incoming req see
system.mem_ctrls.rdQLenPdf::19                      0                       # What read queue length does an incoming req see
system.mem_ctrls.rdQLenPdf::20                      0                       # What read queue length does an incoming req see
system.mem_ctrls.rdQLenPdf::21                      0                       # What read queue length does an incoming req see
system.mem_ctrls.rdQLenPdf::22                      0                       # What read queue length does an incoming req see
system.mem_ctrls.rdQLenPdf::23                      0                       # What read queue length does an incoming req see
system.mem_ctrls.rdQLenPdf::24                      0                       # What read queue length does an incoming req see
system.mem_ctrls.rdQLenPdf::25                      0                       # What read queue length does an incoming req see
system.mem_ctrls.rdQLenPdf::26                      0                       # What read queue length does an incoming req see
system.mem_ctrls.rdQLenPdf::27                      0                       # What read queue length does an incoming req see
system.mem_ctrls.rdQLenPdf::28                      0                       # What read queue length does an incoming req see
system.mem_ctrls.rdQLenPdf::29                      0                       # What read queue length does an incoming req see
system.mem_ctrls.rdQLenPdf::30                      0                       # What read queue length does an incoming req see
system.mem_ctrls.rdQLenPdf::31                      0                       # What read queue length does an incoming req see
system.mem_ctrls.wrQLenPdf::0                       1                       # What write queue length does an incoming req see
system.mem_ctrls.wrQLenPdf::1                       1                       # What write queue length does an incoming req see
system.mem_ctrls.wrQLenPdf::2                       1                       # What write queue length does an incoming req see
system.mem_ctrls.wrQLenPdf::3                       1                       # What write queue length does an incoming req see
system.mem_ctrls.wrQLenPdf::4                       1                       # What write queue length does an incoming req see
system.mem_ctrls.wrQLenPdf::5                       1                       # What write queue length does an incoming req see
system.mem_ctrls.wrQLenPdf::6                       1                       # What write queue length does an incoming req see
system.mem_ctrls.wrQLenPdf::7                       1                       # What write queue length does an incoming req see
system.mem_ctrls.wrQLenPdf::8                       1                       # What write queue length does an incoming req see
system.mem_ctrls.wrQLenPdf::9                       1                       # What write queue length does an incoming req see
system.mem_ctrls.wrQLenPdf::10                      1                       # What write queue length does an incoming req see
system.mem_ctrls.wrQLenPdf::11                      1                       # What write queue length does an incoming req see
system.mem_ctrls.wrQLenPdf::12                      1                       # What write queue length does an incoming req see
system.mem_ctrls.wrQLenPdf::13                      1                       # What write queue length does an incoming req see
system.mem_ctrls.wrQLenPdf::14                      1                       # What write queue length does an incoming req see
system.mem_ctrls.wrQLenPdf::15                      2                       # What write queue length does an incoming req see
system.mem_ctrls.wrQLenPdf::16                      2                       # What write queue length does an incoming req see
system.mem_ctrls.wrQLenPdf::17                      3                       # What write queue length does an incoming req see
system.mem_ctrls.wrQLenPdf::18                      4                       # What write queue length does an incoming req see
system.mem_ctrls.wrQLenPdf::19                      5                       # What write queue length does an incoming req see
system.mem_ctrls.wrQLenPdf::20                      4                       # What write queue length does an incoming req see
system.mem_ctrls.wrQLenPdf::21                      4                       # What write queue length does an incoming req see
system.mem_ctrls.wrQLenPdf::22                      5                       # What write queue length does an incoming req see
system.mem_ctrls.wrQLenPdf::23                      4                       # What write queue length does an incoming req see
system.mem_ctrls.wrQLenPdf::24                      4                       # What write queue length does an incoming req see
system.mem_ctrls.wrQLenPdf::25                      4                       # What write queue length does an incoming req see
system.mem_ctrls.wrQLenPdf::26                      4                       # What write queue length does an incoming req see
system.mem_ctrls.wrQLenPdf::27                      4                       # What write queue length does an incoming req see
system.mem_ctrls.wrQLenPdf::28                      4                       # What write queue length does an incoming req see
system.mem_ctrls.wrQLenPdf::29                      4                       # What write queue length does an incoming req see
system.mem_ctrls.wrQLenPdf::30                      4                       # What write queue length does an incoming req see
system.mem_ctrls.wrQLenPdf::31                      4                       # What write queue length does an incoming req see
system.mem_ctrls.wrQLenPdf::32                      4                       # What write queue length does an incoming req see
system.mem_ctrls.wrQLenPdf::33                      0                       # What write queue length does an incoming req see
system.mem_ctrls.wrQLenPdf::34                      0                       # What write queue length does an incoming req see
system.mem_ctrls.wrQLenPdf::35                      0                       # What write queue length does an incoming req see
system.mem_ctrls.wrQLenPdf::36                      0                       # What write queue length does an incoming req see
system.mem_ctrls.wrQLenPdf::37                      0                       # What write queue length does an incoming req see
system.mem_ctrls.wrQLenPdf::38                      0                       # What write queue length does an incoming req see
system.mem_ctrls.wrQLenPdf::39                      0                       # What write queue length does an incoming req see
system.mem_ctrls.wrQLenPdf::40                      0                       # What write queue length does an incoming req see
system.mem_ctrls.wrQLenPdf::41                      0                       # What write queue length does an incoming req see
system.mem_ctrls.wrQLenPdf::42                      0                       # What write queue length does an incoming req see
system.mem_ctrls.wrQLenPdf::43                      0                       # What write queue length does an incoming req see
system.mem_ctrls.wrQLenPdf::44                      0                       # What write queue length does an incoming req see
system.mem_ctrls.wrQLenPdf::45                      0                       # What write queue length does an incoming req see
system.mem_ctrls.wrQLenPdf::46                      0                       # What write queue length does an incoming req see
system.mem_ctrls.wrQLenPdf::47                      0                       # What write queue length does an incoming req see
system.mem_ctrls.wrQLenPdf::48                      0                       # What write queue length does an incoming req see
system.mem_ctrls.wrQLenPdf::49                      0                       # What write queue length does an incoming req see
system.mem_ctrls.wrQLenPdf::50                      0                       # What write queue length does an incoming req see
system.mem_ctrls.wrQLenPdf::51                      0                       # What write queue length does an incoming req see
system.mem_ctrls.wrQLenPdf::52                      0                       # What write queue length does an incoming req see
system.mem_ctrls.wrQLenPdf::53                      0                       # What write queue length does an incoming req see
system.mem_ctrls.wrQLenPdf::54                      0                       # What write queue length does an incoming req see
system.mem_ctrls.wrQLenPdf::55                      0                       # What write queue length does an incoming req see
system.mem_ctrls.wrQLenPdf::56                      0                       # What write queue length does an incoming req see
system.mem_ctrls.wrQLenPdf::57                      0                       # What write queue length does an incoming req see
system.mem_ctrls.wrQLenPdf::58                      0                       # What write queue length does an incoming req see
system.mem_ctrls.wrQLenPdf::59                      0                       # What write queue length does an incoming req see
system.mem_ctrls.wrQLenPdf::60                      0                       # What write queue length does an incoming req see
system.mem_ctrls.wrQLenPdf::61                      0                       # What write queue length does an incoming req see
system.mem_ctrls.wrQLenPdf::62                      0                       # What write queue length does an incoming req see
system.mem_ctrls.wrQLenPdf::63                      0                       # What write queue length does an incoming req see
system.mem_ctrls.bytesPerActivate::samples          283                       # Bytes accessed per row activation
system.mem_ctrls.bytesPerActivate::mean    395.759717                       # Bytes accessed per row activation
system.mem_ctrls.bytesPerActivate::gmean   230.350729                       # Bytes accessed per row activation
system.mem_ctrls.bytesPerActivate::stdev   372.917041                       # Bytes accessed per row activation
system.mem_ctrls.bytesPerActivate::0-127           89     31.45%     31.45% # Bytes accessed per row activation
system.mem_ctrls.bytesPerActivate::128-255           61     21.55%     53.00% # Bytes accessed per row activation
system.mem_ctrls.bytesPerActivate::256-383           20      7.07%     60.07% # Bytes accessed per row activation
system.mem_ctrls.bytesPerActivate::384-511           15      5.30%     65.37% # Bytes accessed per row activation
system.mem_ctrls.bytesPerActivate::512-639           14      4.95%     70.32% # Bytes accessed per row activation
system.mem_ctrls.bytesPerActivate::640-767           17      6.01%     76.33% # Bytes accessed per row activation
system.mem_ctrls.bytesPerActivate::768-895            7      2.47%     78.80% # Bytes accessed per row activation
system.mem_ctrls.bytesPerActivate::896-1023            8      2.83%     81.63% # Bytes accessed per row activation
system.mem_ctrls.bytesPerActivate::1024-1151           52     18.37%    100.00% # Bytes accessed per row activation
system.mem_ctrls.bytesPerActivate::total          283                       # Bytes accessed per row activation
system.mem_ctrls.rdPerTurnAround::samples            4                       # Reads before turning the bus around for writes
system.mem_ctrls.rdPerTurnAround::mean            430                       # Reads before turning the bus around for writes
system.mem_ctrls.rdPerTurnAround::gmean    188.379289                       # Reads before turning the bus around for writes
system.mem_ctrls.rdPerTurnAround::stdev    550.091508                       # Reads before turning the bus around for writes
system.mem_ctrls.rdPerTurnAround::0-63              1     25.00%     25.00% # Reads before turning the bus around for writes
system.mem_ctrls.rdPerTurnAround::64-127            1     25.00%     50.00% # Reads before turning the bus around for writes
system.mem_ctrls.rdPerTurnAround::384-447            1     25.00%     75.00% # Reads before turning the bus around for writes
system.mem_ctrls.rdPerTurnAround::1216-1279            1     25.00%    100.00% # Reads before turning the bus around for writes
system.mem_ctrls.rdPerTurnAround::total             4                       # Reads before turning the bus around for writes
system.mem_ctrls.wrPerTurnAround::samples            4                       # Writes before turning the bus around for reads
system.mem_ctrls.wrPerTurnAround::mean      16.750000                       # Writes before turning the bus around for reads
system.mem_ctrls.wrPerTurnAround::gmean     16.702381                       # Writes before turning the bus around for reads
system.mem_ctrls.wrPerTurnAround::stdev      1.500000                       # Writes before turning the bus around for reads
system.mem_ctrls.wrPerTurnAround::16                3     75.00%     75.00% # Writes before turning the bus around for reads
system.mem_ctrls.wrPerTurnAround::19                1     25.00%    100.00% # Writes before turning the bus around for reads
system.mem_ctrls.wrPerTurnAround::total             4                       # Writes before turning the bus around for reads
system.mem_ctrls.totQLat                     17058250                       # Total ticks spent queuing
system.mem_ctrls.totMemAccLat                49645750                       # Total ticks spent from burst creation until serviced by the DRAM
system.mem_ctrls.totBusLat                    8690000                       # Total ticks spent in databus transfers
system.mem_ctrls.avgQLat                      9814.87                       # Average queueing delay per DRAM burst
system.mem_ctrls.avgBusLat                    5000.00                       # Average bus latency per DRAM burst
system.mem_ctrls.avgMemAccLat                28564.87                       # Average memory access latency per DRAM burst
system.mem_ctrls.avgRdBW                       867.26                       # Average DRAM read bandwidth in MiByte/s
system.mem_ctrls.avgWrBW                        33.43                       # Average achieved write bandwidth in MiByte/s
system.mem_ctrls.avgRdBWSys                    893.21                       # Average system read bandwidth in MiByte/s
system.mem_ctrls.avgWrBWSys                     42.91                       # Average system write bandwidth in MiByte/s
system.mem_ctrls.peakBW                      12800.00                       # Theoretical peak bandwidth in MiByte/s
system.mem_ctrls.busUtil                         7.04                       # Data bus utilization in percentage
system.mem_ctrls.busUtilRead                     6.78                       # Data bus utilization in percentage for reads
system.mem_ctrls.busUtilWrite                    0.26                       # Data bus utilization in percentage for writes
system.mem_ctrls.avgRdQLen                       1.52                       # Average read queue length when enqueuing
system.mem_ctrls.avgWrQLen                      21.34                       # Average write queue length when enqueuing
system.mem_ctrls.readRowHits                     1453                       # Number of row buffer hits during reads
system.mem_ctrls.writeRowHits                      56                       # Number of row buffer hits during writes
system.mem_ctrls.readRowHitRate                 83.60                       # Row buffer hit rate for reads
system.mem_ctrls.writeRowHitRate                66.67                       # Row buffer hit rate for writes
system.mem_ctrls.avgGap                      68362.74                       # Average gap between requests
system.mem_ctrls.pageHitRate                    82.82                       # Row buffer hit rate, read and write combined
system.mem_ctrls_0.actEnergy                  1746360                       # Energy for activate commands per rank (pJ)
system.mem_ctrls_0.preEnergy                   952875                       # Energy for precharge commands per rank (pJ)
system.mem_ctrls_0.readEnergy                11473800                       # Energy for read commands per rank (pJ)
system.mem_ctrls_0.writeEnergy                 155520                       # Energy for write commands per rank (pJ)
system.mem_ctrls_0.refreshEnergy              8136960                       # Energy for refresh commands per rank (pJ)
system.mem_ctrls_0.actBackEnergy             58782105                       # Energy for active background per rank (pJ)
system.mem_ctrls_0.preBackEnergy             23340750                       # Energy for precharge background per rank (pJ)
system.mem_ctrls_0.totalEnergy              104588370                       # Total energy per rank (pJ)
system.mem_ctrls_0.averagePower            837.779318                       # Core power per rank (mW)
system.mem_ctrls_0.memoryStateTime::IDLE     38280000                       # Time in different power states
system.mem_ctrls_0.memoryStateTime::REF       4160000                       # Time in different power states
system.mem_ctrls_0.memoryStateTime::PRE_PDN            0                       # Time in different power states
system.mem_ctrls_0.memoryStateTime::ACT      82413750                       # Time in different power states
system.mem_ctrls_0.memoryStateTime::ACT_PDN            0                       # Time in different power states
system.mem_ctrls_1.actEnergy                   257040                       # Energy for activate commands per rank (pJ)
system.mem_ctrls_1.preEnergy                   140250                       # Energy for precharge commands per rank (pJ)
system.mem_ctrls_1.readEnergy                 1263600                       # Energy for read commands per rank (pJ)
system.mem_ctrls_1.writeEnergy                 174960                       # Energy for write commands per rank (pJ)
system.mem_ctrls_1.refreshEnergy              8136960                       # Energy for refresh commands per rank (pJ)
system.mem_ctrls_1.actBackEnergy             33494625                       # Energy for active background per rank (pJ)
system.mem_ctrls_1.preBackEnergy             45514500                       # Energy for precharge background per rank (pJ)
system.mem_ctrls_1.totalEnergy               88981935                       # Total energy per rank (pJ)
system.mem_ctrls_1.averagePower            712.846336                       # Core power per rank (mW)
system.mem_ctrls_1.memoryStateTime::IDLE     75538500                       # Time in different power states
system.mem_ctrls_1.memoryStateTime::REF       4160000                       # Time in different power states
system.mem_ctrls_1.memoryStateTime::PRE_PDN            0                       # Time in different power states
system.mem_ctrls_1.memoryStateTime::ACT      45141500                       # Time in different power states
system.mem_ctrls_1.memoryStateTime::ACT_PDN            0                       # Time in different power states
system.cpu0.branchPred.lookups                  34190                       # Number of BP lookups
system.cpu0.branchPred.condPredicted            31736                       # Number of conditional branches predicted
system.cpu0.branchPred.condIncorrect             1447                       # Number of conditional branches incorrect
system.cpu0.branchPred.BTBLookups               31161                       # Number of BTB lookups
system.cpu0.branchPred.BTBHits                  27601                       # Number of BTB hits
system.cpu0.branchPred.BTBCorrect                   0                       # Number of correct BTB predictions (this stat may not work properly.
system.cpu0.branchPred.BTBHitPct            88.575463                       # BTB Hit Percentage
system.cpu0.branchPred.usedRAS                    914                       # Number of times the RAS was used to get a target.
system.cpu0.branchPred.RASInCorrect                14                       # Number of incorrect RAS predictions.
system.cpu_voltage_domain.voltage                   1                       # Voltage in Volts
system.cpu_clk_domain.clock                       500                       # Clock period in ticks
system.cpu0.dstage2_mmu.stage2_tlb.walker.walks            0                       # Table walker walks requested
system.cpu0.dstage2_mmu.stage2_tlb.walker.walkRequestOrigin_Requested::Data            0                       # Table walker requests started/completed, data/inst
system.cpu0.dstage2_mmu.stage2_tlb.walker.walkRequestOrigin_Requested::Inst            0                       # Table walker requests started/completed, data/inst
system.cpu0.dstage2_mmu.stage2_tlb.walker.walkRequestOrigin_Requested::total            0                       # Table walker requests started/completed, data/inst
system.cpu0.dstage2_mmu.stage2_tlb.walker.walkRequestOrigin_Completed::Data            0                       # Table walker requests started/completed, data/inst
system.cpu0.dstage2_mmu.stage2_tlb.walker.walkRequestOrigin_Completed::Inst            0                       # Table walker requests started/completed, data/inst
system.cpu0.dstage2_mmu.stage2_tlb.walker.walkRequestOrigin_Completed::total            0                       # Table walker requests started/completed, data/inst
system.cpu0.dstage2_mmu.stage2_tlb.walker.walkRequestOrigin::total            0                       # Table walker requests started/completed, data/inst
system.cpu0.dstage2_mmu.stage2_tlb.inst_hits            0                       # ITB inst hits
system.cpu0.dstage2_mmu.stage2_tlb.inst_misses            0                       # ITB inst misses
system.cpu0.dstage2_mmu.stage2_tlb.read_hits            0                       # DTB read hits
system.cpu0.dstage2_mmu.stage2_tlb.read_misses            0                       # DTB read misses
system.cpu0.dstage2_mmu.stage2_tlb.write_hits            0                       # DTB write hits
system.cpu0.dstage2_mmu.stage2_tlb.write_misses            0                       # DTB write misses
system.cpu0.dstage2_mmu.stage2_tlb.flush_tlb            0                       # Number of times complete TLB was flushed
system.cpu0.dstage2_mmu.stage2_tlb.flush_tlb_mva            0                       # Number of times TLB was flushed by MVA
system.cpu0.dstage2_mmu.stage2_tlb.flush_tlb_mva_asid            0                       # Number of times TLB was flushed by MVA & ASID
system.cpu0.dstage2_mmu.stage2_tlb.flush_tlb_asid            0                       # Number of times TLB was flushed by ASID
system.cpu0.dstage2_mmu.stage2_tlb.flush_entries            0                       # Number of entries that have been flushed from TLB
system.cpu0.dstage2_mmu.stage2_tlb.align_faults            0                       # Number of TLB faults due to alignment restrictions
system.cpu0.dstage2_mmu.stage2_tlb.prefetch_faults            0                       # Number of TLB faults due to prefetch
system.cpu0.dstage2_mmu.stage2_tlb.domain_faults            0                       # Number of TLB faults due to domain restrictions
system.cpu0.dstage2_mmu.stage2_tlb.perms_faults            0                       # Number of TLB faults due to permissions restrictions
system.cpu0.dstage2_mmu.stage2_tlb.read_accesses            0                       # DTB read accesses
system.cpu0.dstage2_mmu.stage2_tlb.write_accesses            0                       # DTB write accesses
system.cpu0.dstage2_mmu.stage2_tlb.inst_accesses            0                       # ITB inst accesses
system.cpu0.dstage2_mmu.stage2_tlb.hits             0                       # DTB hits
system.cpu0.dstage2_mmu.stage2_tlb.misses            0                       # DTB misses
system.cpu0.dstage2_mmu.stage2_tlb.accesses            0                       # DTB accesses
system.cpu0.dtb.walker.walks                        0                       # Table walker walks requested
system.cpu0.dtb.walker.walkRequestOrigin_Requested::Data            0                       # Table walker requests started/completed, data/inst
system.cpu0.dtb.walker.walkRequestOrigin_Requested::Inst            0                       # Table walker requests started/completed, data/inst
system.cpu0.dtb.walker.walkRequestOrigin_Requested::total            0                       # Table walker requests started/completed, data/inst
system.cpu0.dtb.walker.walkRequestOrigin_Completed::Data            0                       # Table walker requests started/completed, data/inst
system.cpu0.dtb.walker.walkRequestOrigin_Completed::Inst            0                       # Table walker requests started/completed, data/inst
system.cpu0.dtb.walker.walkRequestOrigin_Completed::total            0                       # Table walker requests started/completed, data/inst
system.cpu0.dtb.walker.walkRequestOrigin::total            0                       # Table walker requests started/completed, data/inst
system.cpu0.dtb.inst_hits                           0                       # ITB inst hits
system.cpu0.dtb.inst_misses                         0                       # ITB inst misses
system.cpu0.dtb.read_hits                           0                       # DTB read hits
system.cpu0.dtb.read_misses                         0                       # DTB read misses
system.cpu0.dtb.write_hits                          0                       # DTB write hits
system.cpu0.dtb.write_misses                        0                       # DTB write misses
system.cpu0.dtb.flush_tlb                           0                       # Number of times complete TLB was flushed
system.cpu0.dtb.flush_tlb_mva                       0                       # Number of times TLB was flushed by MVA
system.cpu0.dtb.flush_tlb_mva_asid                  0                       # Number of times TLB was flushed by MVA & ASID
system.cpu0.dtb.flush_tlb_asid                      0                       # Number of times TLB was flushed by ASID
system.cpu0.dtb.flush_entries                       0                       # Number of entries that have been flushed from TLB
system.cpu0.dtb.align_faults                        0                       # Number of TLB faults due to alignment restrictions
system.cpu0.dtb.prefetch_faults                     0                       # Number of TLB faults due to prefetch
system.cpu0.dtb.domain_faults                       0                       # Number of TLB faults due to domain restrictions
system.cpu0.dtb.perms_faults                        0                       # Number of TLB faults due to permissions restrictions
system.cpu0.dtb.read_accesses                       0                       # DTB read accesses
system.cpu0.dtb.write_accesses                      0                       # DTB write accesses
system.cpu0.dtb.inst_accesses                       0                       # ITB inst accesses
system.cpu0.dtb.hits                                0                       # DTB hits
system.cpu0.dtb.misses                              0                       # DTB misses
system.cpu0.dtb.accesses                            0                       # DTB accesses
system.cpu0.istage2_mmu.stage2_tlb.walker.walks            0                       # Table walker walks requested
system.cpu0.istage2_mmu.stage2_tlb.walker.walkRequestOrigin_Requested::Data            0                       # Table walker requests started/completed, data/inst
system.cpu0.istage2_mmu.stage2_tlb.walker.walkRequestOrigin_Requested::Inst            0                       # Table walker requests started/completed, data/inst
system.cpu0.istage2_mmu.stage2_tlb.walker.walkRequestOrigin_Requested::total            0                       # Table walker requests started/completed, data/inst
system.cpu0.istage2_mmu.stage2_tlb.walker.walkRequestOrigin_Completed::Data            0                       # Table walker requests started/completed, data/inst
system.cpu0.istage2_mmu.stage2_tlb.walker.walkRequestOrigin_Completed::Inst            0                       # Table walker requests started/completed, data/inst
system.cpu0.istage2_mmu.stage2_tlb.walker.walkRequestOrigin_Completed::total            0                       # Table walker requests started/completed, data/inst
system.cpu0.istage2_mmu.stage2_tlb.walker.walkRequestOrigin::total            0                       # Table walker requests started/completed, data/inst
system.cpu0.istage2_mmu.stage2_tlb.inst_hits            0                       # ITB inst hits
system.cpu0.istage2_mmu.stage2_tlb.inst_misses            0                       # ITB inst misses
system.cpu0.istage2_mmu.stage2_tlb.read_hits            0                       # DTB read hits
system.cpu0.istage2_mmu.stage2_tlb.read_misses            0                       # DTB read misses
system.cpu0.istage2_mmu.stage2_tlb.write_hits            0                       # DTB write hits
system.cpu0.istage2_mmu.stage2_tlb.write_misses            0                       # DTB write misses
system.cpu0.istage2_mmu.stage2_tlb.flush_tlb            0                       # Number of times complete TLB was flushed
system.cpu0.istage2_mmu.stage2_tlb.flush_tlb_mva            0                       # Number of times TLB was flushed by MVA
system.cpu0.istage2_mmu.stage2_tlb.flush_tlb_mva_asid            0                       # Number of times TLB was flushed by MVA & ASID
system.cpu0.istage2_mmu.stage2_tlb.flush_tlb_asid            0                       # Number of times TLB was flushed by ASID
system.cpu0.istage2_mmu.stage2_tlb.flush_entries            0                       # Number of entries that have been flushed from TLB
system.cpu0.istage2_mmu.stage2_tlb.align_faults            0                       # Number of TLB faults due to alignment restrictions
system.cpu0.istage2_mmu.stage2_tlb.prefetch_faults            0                       # Number of TLB faults due to prefetch
system.cpu0.istage2_mmu.stage2_tlb.domain_faults            0                       # Number of TLB faults due to domain restrictions
system.cpu0.istage2_mmu.stage2_tlb.perms_faults            0                       # Number of TLB faults due to permissions restrictions
system.cpu0.istage2_mmu.stage2_tlb.read_accesses            0                       # DTB read accesses
system.cpu0.istage2_mmu.stage2_tlb.write_accesses            0                       # DTB write accesses
system.cpu0.istage2_mmu.stage2_tlb.inst_accesses            0                       # ITB inst accesses
system.cpu0.istage2_mmu.stage2_tlb.hits             0                       # DTB hits
system.cpu0.istage2_mmu.stage2_tlb.misses            0                       # DTB misses
system.cpu0.istage2_mmu.stage2_tlb.accesses            0                       # DTB accesses
system.cpu0.itb.walker.walks                        0                       # Table walker walks requested
system.cpu0.itb.walker.walkRequestOrigin_Requested::Data            0                       # Table walker requests started/completed, data/inst
system.cpu0.itb.walker.walkRequestOrigin_Requested::Inst            0                       # Table walker requests started/completed, data/inst
system.cpu0.itb.walker.walkRequestOrigin_Requested::total            0                       # Table walker requests started/completed, data/inst
system.cpu0.itb.walker.walkRequestOrigin_Completed::Data            0                       # Table walker requests started/completed, data/inst
system.cpu0.itb.walker.walkRequestOrigin_Completed::Inst            0                       # Table walker requests started/completed, data/inst
system.cpu0.itb.walker.walkRequestOrigin_Completed::total            0                       # Table walker requests started/completed, data/inst
system.cpu0.itb.walker.walkRequestOrigin::total            0                       # Table walker requests started/completed, data/inst
system.cpu0.itb.inst_hits                           0                       # ITB inst hits
system.cpu0.itb.inst_misses                         0                       # ITB inst misses
system.cpu0.itb.read_hits                           0                       # DTB read hits
system.cpu0.itb.read_misses                         0                       # DTB read misses
system.cpu0.itb.write_hits                          0                       # DTB write hits
system.cpu0.itb.write_misses                        0                       # DTB write misses
system.cpu0.itb.flush_tlb                           0                       # Number of times complete TLB was flushed
system.cpu0.itb.flush_tlb_mva                       0                       # Number of times TLB was flushed by MVA
system.cpu0.itb.flush_tlb_mva_asid                  0                       # Number of times TLB was flushed by MVA & ASID
system.cpu0.itb.flush_tlb_asid                      0                       # Number of times TLB was flushed by ASID
system.cpu0.itb.flush_entries                       0                       # Number of entries that have been flushed from TLB
system.cpu0.itb.align_faults                        0                       # Number of TLB faults due to alignment restrictions
system.cpu0.itb.prefetch_faults                     0                       # Number of TLB faults due to prefetch
system.cpu0.itb.domain_faults                       0                       # Number of TLB faults due to domain restrictions
system.cpu0.itb.perms_faults                        0                       # Number of TLB faults due to permissions restrictions
system.cpu0.itb.read_accesses                       0                       # DTB read accesses
system.cpu0.itb.write_accesses                      0                       # DTB write accesses
system.cpu0.itb.inst_accesses                       0                       # ITB inst accesses
system.cpu0.itb.hits                                0                       # DTB hits
system.cpu0.itb.misses                              0                       # DTB misses
system.cpu0.itb.accesses                            0                       # DTB accesses
system.cpu0.workload.num_syscalls                  69                       # Number of system calls
system.cpu0.numCycles                          256515                       # number of cpu cycles simulated
system.cpu0.numWorkItemsStarted                     0                       # number of work items this cpu started
system.cpu0.numWorkItemsCompleted                   0                       # number of work items this cpu completed
system.cpu0.fetch.icacheStallCycles             60846                       # Number of cycles fetch is stalled on an Icache miss
system.cpu0.fetch.Insts                        383964                       # Number of instructions fetch has processed
system.cpu0.fetch.Branches                      34190                       # Number of branches that fetch encountered
system.cpu0.fetch.predictedBranches             28515                       # Number of branches that fetch has predicted taken
system.cpu0.fetch.Cycles                       161990                       # Number of cycles fetch has run and was not squashing or blocked
system.cpu0.fetch.SquashCycles                   3003                       # Number of cycles fetch has spent squashing
system.cpu0.fetch.PendingTrapStallCycles            4                       # Number of stall cycles due to pending traps
system.cpu0.fetch.CacheLines                    47404                       # Number of cache lines fetched
system.cpu0.fetch.IcacheSquashes                  644                       # Number of outstanding Icache misses that were squashed
system.cpu0.fetch.rateDist::samples            224341                       # Number of instructions fetched each cycle (Total)
system.cpu0.fetch.rateDist::mean             1.791545                       # Number of instructions fetched each cycle (Total)
system.cpu0.fetch.rateDist::stdev            2.942723                       # Number of instructions fetched each cycle (Total)
system.cpu0.fetch.rateDist::underflows              0      0.00%      0.00% # Number of instructions fetched each cycle (Total)
system.cpu0.fetch.rateDist::0                  152472     67.96%     67.96% # Number of instructions fetched each cycle (Total)
system.cpu0.fetch.rateDist::1                    6189      2.76%     70.72% # Number of instructions fetched each cycle (Total)
system.cpu0.fetch.rateDist::2                    5238      2.33%     73.06% # Number of instructions fetched each cycle (Total)
system.cpu0.fetch.rateDist::3                    5656      2.52%     75.58% # Number of instructions fetched each cycle (Total)
system.cpu0.fetch.rateDist::4                    7635      3.40%     78.98% # Number of instructions fetched each cycle (Total)
system.cpu0.fetch.rateDist::5                    3422      1.53%     80.51% # Number of instructions fetched each cycle (Total)
system.cpu0.fetch.rateDist::6                    8155      3.64%     84.14% # Number of instructions fetched each cycle (Total)
system.cpu0.fetch.rateDist::7                   12888      5.74%     89.89% # Number of instructions fetched each cycle (Total)
system.cpu0.fetch.rateDist::8                   22686     10.11%    100.00% # Number of instructions fetched each cycle (Total)
system.cpu0.fetch.rateDist::overflows               0      0.00%    100.00% # Number of instructions fetched each cycle (Total)
system.cpu0.fetch.rateDist::min_value               0                       # Number of instructions fetched each cycle (Total)
system.cpu0.fetch.rateDist::max_value               8                       # Number of instructions fetched each cycle (Total)
system.cpu0.fetch.rateDist::total              224341                       # Number of instructions fetched each cycle (Total)
system.cpu0.fetch.branchRate                 0.133287                       # Number of branch fetches per cycle
system.cpu0.fetch.rate                       1.496848                       # Number of inst fetches per cycle
system.cpu0.decode.IdleCycles                   31065                       # Number of cycles decode is idle
system.cpu0.decode.BlockedCycles               141523                       # Number of cycles decode is blocked
system.cpu0.decode.RunCycles                    14671                       # Number of cycles decode is running
system.cpu0.decode.UnblockCycles                35889                       # Number of cycles decode is unblocking
system.cpu0.decode.SquashCycles                  1193                       # Number of cycles decode is squashing
system.cpu0.decode.BranchResolved                1068                       # Number of times decode resolved a branch
system.cpu0.decode.BranchMispred                  320                       # Number of times decode detected a branch misprediction
system.cpu0.decode.DecodedInsts                377184                       # Number of instructions handled by decode
system.cpu0.decode.SquashedInsts                 1194                       # Number of squashed instructions handled by decode
system.cpu0.rename.SquashCycles                  1193                       # Number of cycles rename is squashing
system.cpu0.rename.IdleCycles                   42818                       # Number of cycles rename is idle
system.cpu0.rename.BlockCycles                  13319                       # Number of cycles rename is blocking
system.cpu0.rename.serializeStallCycles          8649                       # count of cycles rename stalled for serializing inst
system.cpu0.rename.RunCycles                    38373                       # Number of cycles rename is running
system.cpu0.rename.UnblockCycles               119989                       # Number of cycles rename is unblocking
system.cpu0.rename.RenamedInsts                373409                       # Number of instructions processed by rename
system.cpu0.rename.ROBFullEvents                   87                       # Number of times rename has blocked due to ROB full
system.cpu0.rename.IQFullEvents                 79325                       # Number of times rename has blocked due to IQ full
system.cpu0.rename.LQFullEvents                   525                       # Number of times rename has blocked due to LQ full
system.cpu0.rename.SQFullEvents                 35754                       # Number of times rename has blocked due to SQ full
system.cpu0.rename.RenamedOperands             469615                       # Number of destination operands rename has renamed
system.cpu0.rename.RenameLookups              1842138                       # Number of register rename lookups that rename has made
system.cpu0.rename.int_rename_lookups          599592                       # Number of integer rename lookups
system.cpu0.rename.fp_rename_lookups               22                       # Number of floating rename lookups
system.cpu0.rename.CommittedMaps               409316                       # Number of HB maps that are committed
system.cpu0.rename.UndoneMaps                   60299                       # Number of HB maps that are undone due to squashing
system.cpu0.rename.serializingInsts               145                       # count of serializing insts renamed
system.cpu0.rename.tempSerializingInsts           144                       # count of temporary serializing insts renamed
system.cpu0.rename.skidInsts                   174157                       # count of insts added to the skid buffer
system.cpu0.memDep0.insertedLoads               79452                       # Number of loads inserted to the mem dependence unit.
system.cpu0.memDep0.insertedStores              23825                       # Number of stores inserted to the mem dependence unit.
system.cpu0.memDep0.conflictingLoads             1362                       # Number of conflicting loads.
system.cpu0.memDep0.conflictingStores             462                       # Number of conflicting stores.
system.cpu0.iq.iqInstsAdded                    368613                       # Number of instructions added to the IQ (excludes non-spec)
system.cpu0.iq.iqNonSpecInstsAdded                297                       # Number of non-speculative instructions added to the IQ
system.cpu0.iq.iqInstsIssued                   329841                       # Number of instructions issued
system.cpu0.iq.iqSquashedInstsIssued             3462                       # Number of squashed instructions issued
system.cpu0.iq.iqSquashedInstsExamined          45247                       # Number of squashed instructions iterated over during squash; mainly for profiling
system.cpu0.iq.iqSquashedOperandsExamined       196177                       # Number of squashed operands that are examined and possibly removed from graph
system.cpu0.iq.iqSquashedNonSpecRemoved            97                       # Number of squashed non-spec instructions that were removed
system.cpu0.iq.issued_per_cycle::samples       224341                       # Number of insts issued each cycle
system.cpu0.iq.issued_per_cycle::mean        1.470266                       # Number of insts issued each cycle
system.cpu0.iq.issued_per_cycle::stdev       0.866432                       # Number of insts issued each cycle
system.cpu0.iq.issued_per_cycle::underflows            0      0.00%      0.00% # Number of insts issued each cycle
system.cpu0.iq.issued_per_cycle::0              56263     25.08%     25.08% # Number of insts issued each cycle
system.cpu0.iq.issued_per_cycle::1               6315      2.81%     27.89% # Number of insts issued each cycle
system.cpu0.iq.issued_per_cycle::2             161763     72.11%    100.00% # Number of insts issued each cycle
system.cpu0.iq.issued_per_cycle::overflows            0      0.00%    100.00% # Number of insts issued each cycle
system.cpu0.iq.issued_per_cycle::min_value            0                       # Number of insts issued each cycle
system.cpu0.iq.issued_per_cycle::max_value            2                       # Number of insts issued each cycle
system.cpu0.iq.issued_per_cycle::total         224341                       # Number of insts issued each cycle
system.cpu0.iq.fu_full::No_OpClass                  0                       # attempts to use FU when none available
system.cpu0.iq.fu_full::IntAlu                      0                       # attempts to use FU when none available
system.cpu0.iq.fu_full::IntMult                     0                       # attempts to use FU when none available
system.cpu0.iq.fu_full::IntDiv                      0                       # attempts to use FU when none available
system.cpu0.iq.fu_full::FloatAdd                    0                       # attempts to use FU when none available
system.cpu0.iq.fu_full::FloatCmp                    0                       # attempts to use FU when none available
system.cpu0.iq.fu_full::FloatCvt                    0                       # attempts to use FU when none available
system.cpu0.iq.fu_full::FloatMult                   0                       # attempts to use FU when none available
system.cpu0.iq.fu_full::FloatDiv                    0                       # attempts to use FU when none available
system.cpu0.iq.fu_full::FloatSqrt                   0                       # attempts to use FU when none available
system.cpu0.iq.fu_full::SimdAdd                     0                       # attempts to use FU when none available
system.cpu0.iq.fu_full::SimdAddAcc                  0                       # attempts to use FU when none available
system.cpu0.iq.fu_full::SimdAlu                     0                       # attempts to use FU when none available
system.cpu0.iq.fu_full::SimdCmp                     0                       # attempts to use FU when none available
system.cpu0.iq.fu_full::SimdCvt                     0                       # attempts to use FU when none available
system.cpu0.iq.fu_full::SimdMisc                    0                       # attempts to use FU when none available
system.cpu0.iq.fu_full::SimdMult                    0                       # attempts to use FU when none available
system.cpu0.iq.fu_full::SimdMultAcc                 0                       # attempts to use FU when none available
system.cpu0.iq.fu_full::SimdShift                   0                       # attempts to use FU when none available
system.cpu0.iq.fu_full::SimdShiftAcc                0                       # attempts to use FU when none available
system.cpu0.iq.fu_full::SimdSqrt                    0                       # attempts to use FU when none available
system.cpu0.iq.fu_full::SimdFloatAdd                0                       # attempts to use FU when none available
system.cpu0.iq.fu_full::SimdFloatAlu                0                       # attempts to use FU when none available
system.cpu0.iq.fu_full::SimdFloatCmp                0                       # attempts to use FU when none available
system.cpu0.iq.fu_full::SimdFloatCvt                0                       # attempts to use FU when none available
system.cpu0.iq.fu_full::SimdFloatDiv                0                       # attempts to use FU when none available
system.cpu0.iq.fu_full::SimdFloatMisc               0                       # attempts to use FU when none available
system.cpu0.iq.fu_full::SimdFloatMult               0                       # attempts to use FU when none available
system.cpu0.iq.fu_full::SimdFloatMultAcc            0                       # attempts to use FU when none available
system.cpu0.iq.fu_full::SimdFloatSqrt               0                       # attempts to use FU when none available
system.cpu0.iq.fu_full::MemRead                     0                       # attempts to use FU when none available
system.cpu0.iq.fu_full::MemWrite                    0                       # attempts to use FU when none available
system.cpu0.iq.fu_full::IprAccess                   0                       # attempts to use FU when none available
system.cpu0.iq.fu_full::InstPrefetch                0                       # attempts to use FU when none available
system.cpu0.iq.FU_type_0::No_OpClass                0      0.00%      0.00% # Type of FU issued
system.cpu0.iq.FU_type_0::IntAlu               185359     56.20%     56.20% # Type of FU issued
system.cpu0.iq.FU_type_0::IntMult               51311     15.56%     71.75% # Type of FU issued
system.cpu0.iq.FU_type_0::IntDiv                    0      0.00%     71.75% # Type of FU issued
system.cpu0.iq.FU_type_0::FloatAdd                  0      0.00%     71.75% # Type of FU issued
system.cpu0.iq.FU_type_0::FloatCmp                  0      0.00%     71.75% # Type of FU issued
system.cpu0.iq.FU_type_0::FloatCvt                  0      0.00%     71.75% # Type of FU issued
system.cpu0.iq.FU_type_0::FloatMult                 0      0.00%     71.75% # Type of FU issued
system.cpu0.iq.FU_type_0::FloatDiv                  0      0.00%     71.75% # Type of FU issued
system.cpu0.iq.FU_type_0::FloatSqrt                 0      0.00%     71.75% # Type of FU issued
system.cpu0.iq.FU_type_0::SimdAdd                   0      0.00%     71.75% # Type of FU issued
system.cpu0.iq.FU_type_0::SimdAddAcc                0      0.00%     71.75% # Type of FU issued
system.cpu0.iq.FU_type_0::SimdAlu                   0      0.00%     71.75% # Type of FU issued
system.cpu0.iq.FU_type_0::SimdCmp                   0      0.00%     71.75% # Type of FU issued
system.cpu0.iq.FU_type_0::SimdCvt                   0      0.00%     71.75% # Type of FU issued
system.cpu0.iq.FU_type_0::SimdMisc                  0      0.00%     71.75% # Type of FU issued
system.cpu0.iq.FU_type_0::SimdMult                  0      0.00%     71.75% # Type of FU issued
system.cpu0.iq.FU_type_0::SimdMultAcc               0      0.00%     71.75% # Type of FU issued
system.cpu0.iq.FU_type_0::SimdShift                 0      0.00%     71.75% # Type of FU issued
system.cpu0.iq.FU_type_0::SimdShiftAcc              0      0.00%     71.75% # Type of FU issued
system.cpu0.iq.FU_type_0::SimdSqrt                  0      0.00%     71.75% # Type of FU issued
system.cpu0.iq.FU_type_0::SimdFloatAdd              0      0.00%     71.75% # Type of FU issued
system.cpu0.iq.FU_type_0::SimdFloatAlu              0      0.00%     71.75% # Type of FU issued
system.cpu0.iq.FU_type_0::SimdFloatCmp              0      0.00%     71.75% # Type of FU issued
system.cpu0.iq.FU_type_0::SimdFloatCvt              0      0.00%     71.75% # Type of FU issued
system.cpu0.iq.FU_type_0::SimdFloatDiv              0      0.00%     71.75% # Type of FU issued
system.cpu0.iq.FU_type_0::SimdFloatMisc             3      0.00%     71.75% # Type of FU issued
system.cpu0.iq.FU_type_0::SimdFloatMult             0      0.00%     71.75% # Type of FU issued
system.cpu0.iq.FU_type_0::SimdFloatMultAcc            0      0.00%     71.75% # Type of FU issued
system.cpu0.iq.FU_type_0::SimdFloatSqrt             0      0.00%     71.75% # Type of FU issued
system.cpu0.iq.FU_type_0::MemRead               71683     21.73%     93.49% # Type of FU issued
system.cpu0.iq.FU_type_0::MemWrite              21485      6.51%    100.00% # Type of FU issued
system.cpu0.iq.FU_type_0::IprAccess                 0      0.00%    100.00% # Type of FU issued
system.cpu0.iq.FU_type_0::InstPrefetch              0      0.00%    100.00% # Type of FU issued
system.cpu0.iq.FU_type_0::total                329841                       # Type of FU issued
system.cpu0.iq.rate                          1.285855                       # Inst issue rate
system.cpu0.iq.fu_busy_cnt                          0                       # FU busy when requested
system.cpu0.iq.fu_busy_rate                         0                       # FU busy rate (busy events/executed inst)
system.cpu0.iq.int_inst_queue_reads            887429                       # Number of integer instruction queue reads
system.cpu0.iq.int_inst_queue_writes           414161                       # Number of integer instruction queue writes
system.cpu0.iq.int_inst_queue_wakeup_accesses       327916                       # Number of integer instruction queue wakeup accesses
system.cpu0.iq.fp_inst_queue_reads                 56                       # Number of floating instruction queue reads
system.cpu0.iq.fp_inst_queue_writes                28                       # Number of floating instruction queue writes
system.cpu0.iq.fp_inst_queue_wakeup_accesses           28                       # Number of floating instruction queue wakeup accesses
system.cpu0.iq.int_alu_accesses                329813                       # Number of integer alu accesses
system.cpu0.iq.fp_alu_accesses                     28                       # Number of floating point alu accesses
system.cpu0.iew.lsq.thread0.forwLoads              72                       # Number of loads that had data forwarded from stores
system.cpu0.iew.lsq.thread0.invAddrLoads            0                       # Number of loads ignored due to an invalid address
system.cpu0.iew.lsq.thread0.squashedLoads        10014                       # Number of loads squashed
system.cpu0.iew.lsq.thread0.ignoredResponses            3                       # Number of memory responses ignored because the instruction is squashed
system.cpu0.iew.lsq.thread0.memOrderViolation           32                       # Number of memory ordering violations
system.cpu0.iew.lsq.thread0.squashedStores         2718                       # Number of stores squashed
system.cpu0.iew.lsq.thread0.invAddrSwpfs            0                       # Number of software prefetches ignored due to an invalid address
system.cpu0.iew.lsq.thread0.blockedLoads            0                       # Number of blocked loads due to partial load-store forwarding
system.cpu0.iew.lsq.thread0.rescheduledLoads           33                       # Number of loads that were rescheduled
system.cpu0.iew.lsq.thread0.cacheBlocked           52                       # Number of times an access to memory failed due to the cache being blocked
system.cpu0.iew.iewIdleCycles                       0                       # Number of cycles IEW is idle
system.cpu0.iew.iewSquashCycles                  1193                       # Number of cycles IEW is squashing
system.cpu0.iew.iewBlockCycles                   5971                       # Number of cycles IEW is blocking
system.cpu0.iew.iewUnblockCycles                 1190                       # Number of cycles IEW is unblocking
system.cpu0.iew.iewDispatchedInsts             368919                       # Number of instructions dispatched to IQ
system.cpu0.iew.iewDispSquashedInsts              104                       # Number of squashed instructions skipped by dispatch
system.cpu0.iew.iewDispLoadInsts                79452                       # Number of dispatched load instructions
system.cpu0.iew.iewDispStoreInsts               23825                       # Number of dispatched store instructions
system.cpu0.iew.iewDispNonSpecInsts               134                       # Number of dispatched non-speculative instructions
system.cpu0.iew.iewIQFullEvents                    18                       # Number of times the IQ has become full, causing a stall
system.cpu0.iew.iewLSQFullEvents                 1156                       # Number of times the LSQ has become full, causing a stall
system.cpu0.iew.memOrderViolationEvents            32                       # Number of memory order violations
system.cpu0.iew.predictedTakenIncorrect           622                       # Number of branches that were predicted taken incorrectly
system.cpu0.iew.predictedNotTakenIncorrect          553                       # Number of branches that were predicted not taken incorrectly
system.cpu0.iew.branchMispredicts                1175                       # Number of branch mispredicts detected at execute
system.cpu0.iew.iewExecutedInsts               328977                       # Number of executed instructions
system.cpu0.iew.iewExecLoadInsts                71093                       # Number of load instructions executed
system.cpu0.iew.iewExecSquashedInsts              864                       # Number of squashed instructions skipped in execute
system.cpu0.iew.exec_swp                            0                       # number of swp insts executed
system.cpu0.iew.exec_nop                            9                       # number of nop insts executed
system.cpu0.iew.exec_refs                       92437                       # number of memory reference insts executed
system.cpu0.iew.exec_branches                   26122                       # Number of branches executed
system.cpu0.iew.exec_stores                     21344                       # Number of stores executed
system.cpu0.iew.exec_rate                    1.282486                       # Inst execution rate
system.cpu0.iew.wb_sent                        328144                       # cumulative count of insts sent to commit
system.cpu0.iew.wb_count                       327944                       # cumulative count of insts written-back
system.cpu0.iew.wb_producers                   274785                       # num instructions producing a value
system.cpu0.iew.wb_consumers                   510012                       # num instructions consuming a value
system.cpu0.iew.wb_penalized                        0                       # number of instrctions required to write to 'other' IQ
system.cpu0.iew.wb_rate                      1.278459                       # insts written-back per cycle
system.cpu0.iew.wb_fanout                    0.538781                       # average fanout of values written-back
system.cpu0.iew.wb_penalized_rate                   0                       # fraction of instructions written-back that wrote to 'other' IQ
system.cpu0.commit.commitSquashedInsts          45259                       # The number of squashed insts skipped by commit
system.cpu0.commit.commitNonSpecStalls            200                       # The number of times commit has been forced to stall to communicate backwards
system.cpu0.commit.branchMispredicts             1139                       # The number of times a branch was mispredicted
system.cpu0.commit.committed_per_cycle::samples       217882                       # Number of insts commited each cycle
system.cpu0.commit.committed_per_cycle::mean     1.485497                       # Number of insts commited each cycle
system.cpu0.commit.committed_per_cycle::stdev     2.178489                       # Number of insts commited each cycle
system.cpu0.commit.committed_per_cycle::underflows            0      0.00%      0.00% # Number of insts commited each cycle
system.cpu0.commit.committed_per_cycle::0        95087     43.64%     43.64% # Number of insts commited each cycle
system.cpu0.commit.committed_per_cycle::1        47539     21.82%     65.46% # Number of insts commited each cycle
system.cpu0.commit.committed_per_cycle::2        44353     20.36%     85.82% # Number of insts commited each cycle
system.cpu0.commit.committed_per_cycle::3         9422      4.32%     90.14% # Number of insts commited each cycle
system.cpu0.commit.committed_per_cycle::4          547      0.25%     90.39% # Number of insts commited each cycle
system.cpu0.commit.committed_per_cycle::5         1255      0.58%     90.97% # Number of insts commited each cycle
system.cpu0.commit.committed_per_cycle::6         3318      1.52%     92.49% # Number of insts commited each cycle
system.cpu0.commit.committed_per_cycle::7          107      0.05%     92.54% # Number of insts commited each cycle
system.cpu0.commit.committed_per_cycle::8        16254      7.46%    100.00% # Number of insts commited each cycle
system.cpu0.commit.committed_per_cycle::overflows            0      0.00%    100.00% # Number of insts commited each cycle
system.cpu0.commit.committed_per_cycle::min_value            0                       # Number of insts commited each cycle
system.cpu0.commit.committed_per_cycle::max_value            8                       # Number of insts commited each cycle
system.cpu0.commit.committed_per_cycle::total       217882                       # Number of insts commited each cycle
system.cpu0.commit.committedInsts              309668                       # Number of instructions committed
system.cpu0.commit.committedOps                323663                       # Number of ops (including micro ops) committed
system.cpu0.commit.swp_count                        0                       # Number of s/w prefetches committed
system.cpu0.commit.refs                         90545                       # Number of memory references committed
system.cpu0.commit.loads                        69438                       # Number of loads committed
system.cpu0.commit.membars                        119                       # Number of memory barriers committed
system.cpu0.commit.branches                     25414                       # Number of branches committed
system.cpu0.commit.fp_insts                        28                       # Number of committed floating point instructions.
system.cpu0.commit.int_insts                   298780                       # Number of committed integer instructions.
system.cpu0.commit.function_calls                 307                       # Number of function calls committed.
system.cpu0.commit.op_class_0::No_OpClass            0      0.00%      0.00% # Class of committed instruction
system.cpu0.commit.op_class_0::IntAlu          181889     56.20%     56.20% # Class of committed instruction
system.cpu0.commit.op_class_0::IntMult          51226     15.83%     72.02% # Class of committed instruction
system.cpu0.commit.op_class_0::IntDiv               0      0.00%     72.02% # Class of committed instruction
system.cpu0.commit.op_class_0::FloatAdd             0      0.00%     72.02% # Class of committed instruction
system.cpu0.commit.op_class_0::FloatCmp             0      0.00%     72.02% # Class of committed instruction
system.cpu0.commit.op_class_0::FloatCvt             0      0.00%     72.02% # Class of committed instruction
system.cpu0.commit.op_class_0::FloatMult            0      0.00%     72.02% # Class of committed instruction
system.cpu0.commit.op_class_0::FloatDiv             0      0.00%     72.02% # Class of committed instruction
system.cpu0.commit.op_class_0::FloatSqrt            0      0.00%     72.02% # Class of committed instruction
system.cpu0.commit.op_class_0::SimdAdd              0      0.00%     72.02% # Class of committed instruction
[...]
system.cpu3.dcache.ReadReq_avg_mshr_miss_latency::total 19347.759857                       # average ReadReq mshr miss latency
system.cpu3.dcache.WriteReq_avg_mshr_miss_latency::cpu3.data 17425.033333                       # average WriteReq mshr miss latency
system.cpu3.dcache.WriteReq_avg_mshr_miss_latency::total 17425.033333                       # average WriteReq mshr miss latency
system.cpu3.dcache.SoftPFReq_avg_mshr_miss_latency::cpu3.data        54500                       # average SoftPFReq mshr miss latency
system.cpu3.dcache.SoftPFReq_avg_mshr_miss_latency::total        54500                       # average SoftPFReq mshr miss latency
system.cpu3.dcache.LoadLockedReq_avg_mshr_miss_latency::cpu3.data         9500                       # average LoadLockedReq mshr miss latency
system.cpu3.dcache.LoadLockedReq_avg_mshr_miss_latency::total         9500                       # average LoadLockedReq mshr miss latency
system.cpu3.dcache.StoreCondReq_avg_mshr_miss_latency::cpu3.data         9667                       # average StoreCondReq mshr miss latency
system.cpu3.dcache.StoreCondReq_avg_mshr_miss_latency::total         9667                       # average StoreCondReq mshr miss latency
system.cpu3.dcache.demand_avg_mshr_miss_latency::cpu3.data 19007.454277                       # average overall mshr miss latency
system.cpu3.dcache.demand_avg_mshr_miss_latency::total 19007.454277                       # average overall mshr miss latency
system.cpu3.dcache.overall_avg_mshr_miss_latency::cpu3.data 19111.844118                       # average overall mshr miss latency
system.cpu3.dcache.overall_avg_mshr_miss_latency::total 19111.844118                       # average overall mshr miss latency
system.cpu3.dcache.no_allocate_misses               0                       # Number of misses that were no-allocate
system.cpu3.icache.tags.replacements                0                       # number of replacements
system.cpu3.icache.tags.tagsinuse           23.037581                       # Cycle average of tags in use
system.cpu3.icache.tags.total_refs              38779                       # Total number of references to valid blocks.
system.cpu3.icache.tags.sampled_refs               50                       # Sample count of references to valid blocks.
system.cpu3.icache.tags.avg_refs           775.580000                       # Average number of references to valid blocks.
system.cpu3.icache.tags.warmup_cycle                0                       # Cycle when the warmup percentage was hit.
system.cpu3.icache.tags.occ_blocks::cpu3.inst    23.037581                       # Average occupied blocks per requestor
system.cpu3.icache.tags.occ_percent::cpu3.inst     0.044995                       # Average percentage of cache occupancy
system.cpu3.icache.tags.occ_percent::total     0.044995                       # Average percentage of cache occupancy
system.cpu3.icache.tags.occ_task_id_blocks::1024           50                       # Occupied blocks per task id
system.cpu3.icache.tags.age_task_id_blocks_1024::0            8                       # Occupied blocks per task id
system.cpu3.icache.tags.age_task_id_blocks_1024::1           42                       # Occupied blocks per task id
system.cpu3.icache.tags.occ_task_id_percent::1024     0.097656                       # Percentage of cache occupancy per task id
system.cpu3.icache.tags.tag_accesses            77754                       # Number of tag accesses
system.cpu3.icache.tags.data_accesses           77754                       # Number of data accesses
system.cpu3.icache.ReadReq_hits::cpu3.inst        38779                       # number of ReadReq hits
system.cpu3.icache.ReadReq_hits::total          38779                       # number of ReadReq hits
system.cpu3.icache.demand_hits::cpu3.inst        38779                       # number of demand (read+write) hits
system.cpu3.icache.demand_hits::total           38779                       # number of demand (read+write) hits
system.cpu3.icache.overall_hits::cpu3.inst        38779                       # number of overall hits
system.cpu3.icache.overall_hits::total          38779                       # number of overall hits
system.cpu3.icache.ReadReq_misses::cpu3.inst           73                       # number of ReadReq misses
system.cpu3.icache.ReadReq_misses::total           73                       # number of ReadReq misses
system.cpu3.icache.demand_misses::cpu3.inst           73                       # number of demand (read+write) misses
system.cpu3.icache.demand_misses::total            73                       # number of demand (read+write) misses
system.cpu3.icache.overall_misses::cpu3.inst           73                       # number of overall misses
system.cpu3.icache.overall_misses::total           73                       # number of overall misses
system.cpu3.icache.ReadReq_miss_latency::cpu3.inst      4569250                       # number of ReadReq miss cycles
system.cpu3.icache.ReadReq_miss_latency::total      4569250                       # number of ReadReq miss cycles
system.cpu3.icache.demand_miss_latency::cpu3.inst      4569250                       # number of demand (read+write) miss cycles
system.cpu3.icache.demand_miss_latency::total      4569250                       # number of demand (read+write) miss cycles
system.cpu3.icache.overall_miss_latency::cpu3.inst      4569250                       # number of overall miss cycles
system.cpu3.icache.overall_miss_latency::total      4569250                       # number of overall miss cycles
system.cpu3.icache.ReadReq_accesses::cpu3.inst        38852                       # number of ReadReq accesses(hits+misses)
system.cpu3.icache.ReadReq_accesses::total        38852                       # number of ReadReq accesses(hits+misses)
system.cpu3.icache.demand_accesses::cpu3.inst        38852                       # number of demand (read+write) accesses
system.cpu3.icache.demand_accesses::total        38852                       # number of demand (read+write) accesses
system.cpu3.icache.overall_accesses::cpu3.inst        38852                       # number of overall (read+write) accesses
system.cpu3.icache.overall_accesses::total        38852                       # number of overall (read+write) accesses
system.cpu3.icache.ReadReq_miss_rate::cpu3.inst     0.001879                       # miss rate for ReadReq accesses
system.cpu3.icache.ReadReq_miss_rate::total     0.001879                       # miss rate for ReadReq accesses
system.cpu3.icache.demand_miss_rate::cpu3.inst     0.001879                       # miss rate for demand accesses
system.cpu3.icache.demand_miss_rate::total     0.001879                       # miss rate for demand accesses
system.cpu3.icache.overall_miss_rate::cpu3.inst     0.001879                       # miss rate for overall accesses
system.cpu3.icache.overall_miss_rate::total     0.001879                       # miss rate for overall accesses
system.cpu3.icache.ReadReq_avg_miss_latency::cpu3.inst 62592.465753                       # average ReadReq miss latency
system.cpu3.icache.ReadReq_avg_miss_latency::total 62592.465753                       # average ReadReq miss latency
system.cpu3.icache.demand_avg_miss_latency::cpu3.inst 62592.465753                       # average overall miss latency
system.cpu3.icache.demand_avg_miss_latency::total 62592.465753                       # average overall miss latency
system.cpu3.icache.overall_avg_miss_latency::cpu3.inst 62592.465753                       # average overall miss latency
system.cpu3.icache.overall_avg_miss_latency::total 62592.465753                       # average overall miss latency
system.cpu3.icache.blocked_cycles::no_mshrs           62                       # number of cycles access was blocked
system.cpu3.icache.blocked_cycles::no_targets            0                       # number of cycles access was blocked
system.cpu3.icache.blocked::no_mshrs                1                       # number of cycles access was blocked
system.cpu3.icache.blocked::no_targets              0                       # number of cycles access was blocked
system.cpu3.icache.avg_blocked_cycles::no_mshrs           62                       # average number of cycles each access was blocked
system.cpu3.icache.avg_blocked_cycles::no_targets          nan                       # average number of cycles each access was blocked
system.cpu3.icache.fast_writes                      0                       # number of fast writes performed
system.cpu3.icache.cache_copies                     0                       # number of cache copies performed
system.cpu3.icache.ReadReq_mshr_hits::cpu3.inst           23                       # number of ReadReq MSHR hits
system.cpu3.icache.ReadReq_mshr_hits::total           23                       # number of ReadReq MSHR hits
system.cpu3.icache.demand_mshr_hits::cpu3.inst           23                       # number of demand (read+write) MSHR hits
system.cpu3.icache.demand_mshr_hits::total           23                       # number of demand (read+write) MSHR hits
system.cpu3.icache.overall_mshr_hits::cpu3.inst           23                       # number of overall MSHR hits
system.cpu3.icache.overall_mshr_hits::total           23                       # number of overall MSHR hits
system.cpu3.icache.ReadReq_mshr_misses::cpu3.inst           50                       # number of ReadReq MSHR misses
system.cpu3.icache.ReadReq_mshr_misses::total           50                       # number of ReadReq MSHR misses
system.cpu3.icache.demand_mshr_misses::cpu3.inst           50                       # number of demand (read+write) MSHR misses
system.cpu3.icache.demand_mshr_misses::total           50                       # number of demand (read+write) MSHR misses
system.cpu3.icache.overall_mshr_misses::cpu3.inst           50                       # number of overall MSHR misses
system.cpu3.icache.overall_mshr_misses::total           50                       # number of overall MSHR misses
system.cpu3.icache.ReadReq_mshr_miss_latency::cpu3.inst      3482500                       # number of ReadReq MSHR miss cycles
system.cpu3.icache.ReadReq_mshr_miss_latency::total      3482500                       # number of ReadReq MSHR miss cycles
system.cpu3.icache.demand_mshr_miss_latency::cpu3.inst      3482500                       # number of demand (read+write) MSHR miss cycles
system.cpu3.icache.demand_mshr_miss_latency::total      3482500                       # number of demand (read+write) MSHR miss cycles
system.cpu3.icache.overall_mshr_miss_latency::cpu3.inst      3482500                       # number of overall MSHR miss cycles
system.cpu3.icache.overall_mshr_miss_latency::total      3482500                       # number of overall MSHR miss cycles
system.cpu3.icache.ReadReq_mshr_miss_rate::cpu3.inst     0.001287                       # mshr miss rate for ReadReq accesses
system.cpu3.icache.ReadReq_mshr_miss_rate::total     0.001287                       # mshr miss rate for ReadReq accesses
system.cpu3.icache.demand_mshr_miss_rate::cpu3.inst     0.001287                       # mshr miss rate for demand accesses
system.cpu3.icache.demand_mshr_miss_rate::total     0.001287                       # mshr miss rate for demand accesses
system.cpu3.icache.overall_mshr_miss_rate::cpu3.inst     0.001287                       # mshr miss rate for overall accesses
system.cpu3.icache.overall_mshr_miss_rate::total     0.001287                       # mshr miss rate for overall accesses
system.cpu3.icache.ReadReq_avg_mshr_miss_latency::cpu3.inst        69650                       # average ReadReq mshr miss latency
system.cpu3.icache.ReadReq_avg_mshr_miss_latency::total        69650                       # average ReadReq mshr miss latency
system.cpu3.icache.demand_avg_mshr_miss_latency::cpu3.inst        69650                       # average overall mshr miss latency
system.cpu3.icache.demand_avg_mshr_miss_latency::total        69650                       # average overall mshr miss latency
system.cpu3.icache.overall_avg_mshr_miss_latency::cpu3.inst        69650                       # average overall mshr miss latency
system.cpu3.icache.overall_avg_mshr_miss_latency::total        69650                       # average overall mshr miss latency
system.cpu3.icache.no_allocate_misses               0                       # Number of misses that were no-allocate
system.membus.trans_dist::ReadReq                1804                       # Transaction distribution
system.membus.trans_dist::ReadResp               1803                       # Transaction distribution
system.membus.trans_dist::Writeback                86                       # Transaction distribution
system.membus.trans_dist::UpgradeReq               17                       # Transaction distribution
system.membus.trans_dist::SCUpgradeReq             10                       # Transaction distribution
system.membus.trans_dist::UpgradeResp              27                       # Transaction distribution
system.membus.trans_dist::ReadExReq               930                       # Transaction distribution
system.membus.trans_dist::ReadExResp              930                       # Transaction distribution
system.membus.pkt_count_system.cpu0.icache.mem_side::system.mem_ctrls.port         1215                       # Packet count per connected master and slave (bytes)
system.membus.pkt_count_system.cpu0.dcache.mem_side::system.mem_ctrls.port         1997                       # Packet count per connected master and slave (bytes)
system.membus.pkt_count_system.cpu1.icache.mem_side::system.mem_ctrls.port          102                       # Packet count per connected master and slave (bytes)
system.membus.pkt_count_system.cpu1.dcache.mem_side::system.mem_ctrls.port          373                       # Packet count per connected master and slave (bytes)
system.membus.pkt_count_system.cpu2.icache.mem_side::system.mem_ctrls.port          108                       # Packet count per connected master and slave (bytes)
system.membus.pkt_count_system.cpu2.dcache.mem_side::system.mem_ctrls.port          380                       # Packet count per connected master and slave (bytes)
system.membus.pkt_count_system.cpu3.icache.mem_side::system.mem_ctrls.port          100                       # Packet count per connected master and slave (bytes)
system.membus.pkt_count_system.cpu3.dcache.mem_side::system.mem_ctrls.port          375                       # Packet count per connected master and slave (bytes)
system.membus.pkt_count::total                   4650                       # Packet count per connected master and slave (bytes)
system.membus.pkt_size_system.cpu0.icache.mem_side::system.mem_ctrls.port        38848                       # Cumulative packet size per connected master and slave (bytes)
system.membus.pkt_size_system.cpu0.dcache.mem_side::system.mem_ctrls.port        65728                       # Cumulative packet size per connected master and slave (bytes)
system.membus.pkt_size_system.cpu1.icache.mem_side::system.mem_ctrls.port         3264                       # Cumulative packet size per connected master and slave (bytes)
system.membus.pkt_size_system.cpu1.dcache.mem_side::system.mem_ctrls.port         1472                       # Cumulative packet size per connected master and slave (bytes)
system.membus.pkt_size_system.cpu2.icache.mem_side::system.mem_ctrls.port         3456                       # Cumulative packet size per connected master and slave (bytes)
system.membus.pkt_size_system.cpu2.dcache.mem_side::system.mem_ctrls.port         2176                       # Cumulative packet size per connected master and slave (bytes)
system.membus.pkt_size_system.cpu3.icache.mem_side::system.mem_ctrls.port         3200                       # Cumulative packet size per connected master and slave (bytes)
system.membus.pkt_size_system.cpu3.dcache.mem_side::system.mem_ctrls.port         1856                       # Cumulative packet size per connected master and slave (bytes)
system.membus.pkt_size::total                  120000                       # Cumulative packet size per connected master and slave (bytes)
system.membus.snoops                              957                       # Total snoops (count)
system.membus.snoop_fanout::samples              2847                       # Request fanout histogram
system.membus.snoop_fanout::mean                    7                       # Request fanout histogram
system.membus.snoop_fanout::stdev                   0                       # Request fanout histogram
system.membus.snoop_fanout::underflows              0      0.00%      0.00% # Request fanout histogram
system.membus.snoop_fanout::0                       0      0.00%      0.00% # Request fanout histogram
system.membus.snoop_fanout::1                       0      0.00%      0.00% # Request fanout histogram
system.membus.snoop_fanout::2                       0      0.00%      0.00% # Request fanout histogram
system.membus.snoop_fanout::3                       0      0.00%      0.00% # Request fanout histogram
system.membus.snoop_fanout::4                       0      0.00%      0.00% # Request fanout histogram
system.membus.snoop_fanout::5                       0      0.00%      0.00% # Request fanout histogram
system.membus.snoop_fanout::6                       0      0.00%      0.00% # Request fanout histogram
system.membus.snoop_fanout::7                    2847    100.00%    100.00% # Request fanout histogram
system.membus.snoop_fanout::8                       0      0.00%    100.00% # Request fanout histogram
system.membus.snoop_fanout::overflows               0      0.00%    100.00% # Request fanout histogram
system.membus.snoop_fanout::min_value               7                       # Request fanout histogram
system.membus.snoop_fanout::max_value               7                       # Request fanout histogram
system.membus.snoop_fanout::total                2847                       # Request fanout histogram
system.membus.reqLayer0.occupancy             3992497                       # Layer occupancy (ticks)
system.membus.reqLayer0.utilization               3.1                       # Layer utilization (%)
system.membus.respLayer1.occupancy            3230250                       # Layer occupancy (ticks)
system.membus.respLayer1.utilization              2.5                       # Layer utilization (%)
system.membus.respLayer2.occupancy            5016739                       # Layer occupancy (ticks)
system.membus.respLayer2.utilization              3.9                       # Layer utilization (%)
system.membus.respLayer5.occupancy             272500                       # Layer occupancy (ticks)
system.membus.respLayer5.utilization              0.2                       # Layer utilization (%)
system.membus.respLayer6.occupancy            1782459                       # Layer occupancy (ticks)
system.membus.respLayer6.utilization              1.4                       # Layer utilization (%)
system.membus.respLayer9.occupancy             288750                       # Layer occupancy (ticks)
system.membus.respLayer9.utilization              0.2                       # Layer utilization (%)
system.membus.respLayer10.occupancy           1735734                       # Layer occupancy (ticks)
system.membus.respLayer10.utilization             1.4                       # Layer utilization (%)
system.membus.respLayer13.occupancy            265000                       # Layer occupancy (ticks)
system.membus.respLayer13.utilization             0.2                       # Layer utilization (%)
system.membus.respLayer14.occupancy           1734472                       # Layer occupancy (ticks)
system.membus.respLayer14.utilization             1.4                       # Layer utilization (%)

---------- End Simulation Statistics   ----------
