
---------- Begin Simulation Statistics ----------
sim_seconds                                  0.000080                       # Number of seconds simulated
sim_ticks                                    80259500                       # Number of ticks simulated
final_tick                                   80259500                       # Number of ticks from beginning of simulation (restored from checkpoints and never reset)
sim_freq                                 1000000000000                       # Frequency of simulated ticks
host_inst_rate                                 181321                       # Simulator instruction rate (inst/s)
host_op_rate                                   184550                       # Simulator op (including micro ops) rate (op/s)
host_tick_rate                               11981292                       # Simulator tick rate (ticks/s)
host_mem_usage                                 667680                       # Number of bytes of host memory used
host_seconds                                     6.70                       # Real time elapsed on the host
sim_insts                                     1214613                       # Number of instructions simulated
sim_ops                                       1236250                       # Number of ops (including micro ops) simulated
system.voltage_domain.voltage                       1                       # Voltage in Volts
system.clk_domain.clock                          1000                       # Clock period in ticks
system.mem_ctrls.bytes_read::cpu0.inst          39360                       # Number of bytes read from this memory
system.mem_ctrls.bytes_read::cpu0.data          61504                       # Number of bytes read from this memory
system.mem_ctrls.bytes_read::cpu1.inst           3392                       # Number of bytes read from this memory
system.mem_ctrls.bytes_read::cpu1.data           1408                       # Number of bytes read from this memory
system.mem_ctrls.bytes_read::cpu2.inst           3392                       # Number of bytes read from this memory
system.mem_ctrls.bytes_read::cpu2.data           1472                       # Number of bytes read from this memory
system.mem_ctrls.bytes_read::cpu3.inst           3456                       # Number of bytes read from this memory
system.mem_ctrls.bytes_read::cpu3.data           1600                       # Number of bytes read from this memory
system.mem_ctrls.bytes_read::cpu4.inst           3584                       # Number of bytes read from this memory
system.mem_ctrls.bytes_read::cpu4.data           2176                       # Number of bytes read from this memory
system.mem_ctrls.bytes_read::cpu5.inst           3264                       # Number of bytes read from this memory
system.mem_ctrls.bytes_read::cpu5.data           1664                       # Number of bytes read from this memory
system.mem_ctrls.bytes_read::cpu6.inst           3328                       # Number of bytes read from this memory
system.mem_ctrls.bytes_read::cpu6.data           1792                       # Number of bytes read from this memory
system.mem_ctrls.bytes_read::cpu7.inst           3264                       # Number of bytes read from this memory
system.mem_ctrls.bytes_read::cpu7.data           1664                       # Number of bytes read from this memory
system.mem_ctrls.bytes_read::total             136320                       # Number of bytes read from this memory
system.mem_ctrls.bytes_inst_read::cpu0.inst        39360                       # Number of instructions bytes read from this memory
system.mem_ctrls.bytes_inst_read::cpu1.inst         3392                       # Number of instructions bytes read from this memory
system.mem_ctrls.bytes_inst_read::cpu2.inst         3392                       # Number of instructions bytes read from this memory
system.mem_ctrls.bytes_inst_read::cpu3.inst         3456                       # Number of instructions bytes read from this memory
system.mem_ctrls.bytes_inst_read::cpu4.inst         3584                       # Number of instructions bytes read from this memory
system.mem_ctrls.bytes_inst_read::cpu5.inst         3264                       # Number of instructions bytes read from this memory
system.mem_ctrls.bytes_inst_read::cpu6.inst         3328                       # Number of instructions bytes read from this memory
system.mem_ctrls.bytes_inst_read::cpu7.inst         3264                       # Number of instructions bytes read from this memory
system.mem_ctrls.bytes_inst_read::total         63040                       # Number of instructions bytes read from this memory
system.mem_ctrls.bytes_written::writebacks         6144                       # Number of bytes written to this memory
system.mem_ctrls.bytes_written::total            6144                       # Number of bytes written to this memory
system.mem_ctrls.num_reads::cpu0.inst             615                       # Number of read requests responded to by this memory
system.mem_ctrls.num_reads::cpu0.data             961                       # Number of read requests responded to by this memory
system.mem_ctrls.num_reads::cpu1.inst              53                       # Number of read requests responded to by this memory
system.mem_ctrls.num_reads::cpu1.data              22                       # Number of read requests responded to by this memory
system.mem_ctrls.num_reads::cpu2.inst              53                       # Number of read requests responded to by this memory
system.mem_ctrls.num_reads::cpu2.data              23                       # Number of read requests responded to by this memory
system.mem_ctrls.num_reads::cpu3.inst              54                       # Number of read requests responded to by this memory
system.mem_ctrls.num_reads::cpu3.data              25                       # Number of read requests responded to by this memory
system.mem_ctrls.num_reads::cpu4.inst              56                       # Number of read requests responded to by this memory
system.mem_ctrls.num_reads::cpu4.data              34                       # Number of read requests responded to by this memory
system.mem_ctrls.num_reads::cpu5.inst              51                       # Number of read requests responded to by this memory
system.mem_ctrls.num_reads::cpu5.data              26                       # Number of read requests responded to by this memory
system.mem_ctrls.num_reads::cpu6.inst              52                       # Number of read requests responded to by this memory
system.mem_ctrls.num_reads::cpu6.data              28                       # Number of read requests responded to by this memory
system.mem_ctrls.num_reads::cpu7.inst              51                       # Number of read requests responded to by this memory
system.mem_ctrls.num_reads::cpu7.data              26                       # Number of read requests responded to by this memory
system.mem_ctrls.num_reads::total                2130                       # Number of read requests responded to by this memory
system.mem_ctrls.num_writes::writebacks            96                       # Number of write requests responded to by this memory
system.mem_ctrls.num_writes::total                 96                       # Number of write requests responded to by this memory
system.mem_ctrls.bw_read::cpu0.inst         490409235                       # Total read bandwidth from this memory (bytes/s)
system.mem_ctrls.bw_read::cpu0.data         766314268                       # Total read bandwidth from this memory (bytes/s)
system.mem_ctrls.bw_read::cpu1.inst          42262910                       # Total read bandwidth from this memory (bytes/s)
system.mem_ctrls.bw_read::cpu1.data          17543095                       # Total read bandwidth from this memory (bytes/s)
system.mem_ctrls.bw_read::cpu2.inst          42262910                       # Total read bandwidth from this memory (bytes/s)
system.mem_ctrls.bw_read::cpu2.data          18340508                       # Total read bandwidth from this memory (bytes/s)
system.mem_ctrls.bw_read::cpu3.inst          43060323                       # Total read bandwidth from this memory (bytes/s)
system.mem_ctrls.bw_read::cpu3.data          19935335                       # Total read bandwidth from this memory (bytes/s)
system.mem_ctrls.bw_read::cpu4.inst          44655150                       # Total read bandwidth from this memory (bytes/s)
system.mem_ctrls.bw_read::cpu4.data          27112055                       # Total read bandwidth from this memory (bytes/s)
system.mem_ctrls.bw_read::cpu5.inst          40668083                       # Total read bandwidth from this memory (bytes/s)
system.mem_ctrls.bw_read::cpu5.data          20732748                       # Total read bandwidth from this memory (bytes/s)
system.mem_ctrls.bw_read::cpu6.inst          41465496                       # Total read bandwidth from this memory (bytes/s)
system.mem_ctrls.bw_read::cpu6.data          22327575                       # Total read bandwidth from this memory (bytes/s)
system.mem_ctrls.bw_read::cpu7.inst          40668083                       # Total read bandwidth from this memory (bytes/s)
system.mem_ctrls.bw_read::cpu7.data          20732748                       # Total read bandwidth from this memory (bytes/s)
system.mem_ctrls.bw_read::total            1698490521                       # Total read bandwidth from this memory (bytes/s)
system.mem_ctrls.bw_inst_read::cpu0.inst    490409235                       # Instruction read bandwidth from this memory (bytes/s)
system.mem_ctrls.bw_inst_read::cpu1.inst     42262910                       # Instruction read bandwidth from this memory (bytes/s)
system.mem_ctrls.bw_inst_read::cpu2.inst     42262910                       # Instruction read bandwidth from this memory (bytes/s)
system.mem_ctrls.bw_inst_read::cpu3.inst     43060323                       # Instruction read bandwidth from this memory (bytes/s)
system.mem_ctrls.bw_inst_read::cpu4.inst     44655150                       # Instruction read bandwidth from this memory (bytes/s)
system.mem_ctrls.bw_inst_read::cpu5.inst     40668083                       # Instruction read bandwidth from this memory (bytes/s)
system.mem_ctrls.bw_inst_read::cpu6.inst     41465496                       # Instruction read bandwidth from this memory (bytes/s)
system.mem_ctrls.bw_inst_read::cpu7.inst     40668083                       # Instruction read bandwidth from this memory (bytes/s)
system.mem_ctrls.bw_inst_read::total        785452189                       # Instruction read bandwidth from this memory (bytes/s)
system.mem_ctrls.bw_write::writebacks        76551685                       # Write bandwidth from this memory (bytes/s)
system.mem_ctrls.bw_write::total             76551685                       # Write bandwidth from this memory (bytes/s)
system.mem_ctrls.bw_total::writebacks        76551685                       # Total bandwidth to/from this memory (bytes/s)
system.mem_ctrls.bw_total::cpu0.inst        490409235                       # Total bandwidth to/from this memory (bytes/s)
system.mem_ctrls.bw_total::cpu0.data        766314268                       # Total bandwidth to/from this memory (bytes/s)
system.mem_ctrls.bw_total::cpu1.inst         42262910                       # Total bandwidth to/from this memory (bytes/s)
system.mem_ctrls.bw_total::cpu1.data         17543095                       # Total bandwidth to/from this memory (bytes/s)
system.mem_ctrls.bw_total::cpu2.inst         42262910                       # Total bandwidth to/from this memory (bytes/s)
system.mem_ctrls.bw_total::cpu2.data         18340508                       # Total bandwidth to/from this memory (bytes/s)
system.mem_ctrls.bw_total::cpu3.inst         43060323                       # Total bandwidth to/from this memory (bytes/s)
system.mem_ctrls.bw_total::cpu3.data         19935335                       # Total bandwidth to/from this memory (bytes/s)
system.mem_ctrls.bw_total::cpu4.inst         44655150                       # Total bandwidth to/from this memory (bytes/s)
system.mem_ctrls.bw_total::cpu4.data         27112055                       # Total bandwidth to/from this memory (bytes/s)
system.mem_ctrls.bw_total::cpu5.inst         40668083                       # Total bandwidth to/from this memory (bytes/s)
system.mem_ctrls.bw_total::cpu5.data         20732748                       # Total bandwidth to/from this memory (bytes/s)
system.mem_ctrls.bw_total::cpu6.inst         41465496                       # Total bandwidth to/from this memory (bytes/s)
system.mem_ctrls.bw_total::cpu6.data         22327575                       # Total bandwidth to/from this memory (bytes/s)
system.mem_ctrls.bw_total::cpu7.inst         40668083                       # Total bandwidth to/from this memory (bytes/s)
system.mem_ctrls.bw_total::cpu7.data         20732748                       # Total bandwidth to/from this memory (bytes/s)
system.mem_ctrls.bw_total::total           1775042207                       # Total bandwidth to/from this memory (bytes/s)
system.mem_ctrls.readReqs                        2131                       # Number of read requests accepted
system.mem_ctrls.writeReqs                         96                       # Number of write requests accepted
system.mem_ctrls.readBursts                      2131                       # Number of DRAM read bursts, including those serviced by the write queue
system.mem_ctrls.writeBursts                       96                       # Number of DRAM write bursts, including those merged in the write queue
system.mem_ctrls.bytesReadDRAM                 133248                       # Total number of bytes read from DRAM
system.mem_ctrls.bytesReadWrQ                    3136                       # Total number of bytes read from write queue
system.mem_ctrls.bytesWritten                    4416                       # Total number of bytes written to DRAM
system.mem_ctrls.bytesReadSys                  136384                       # Total read bytes from the system interface side
system.mem_ctrls.bytesWrittenSys                 6144                       # Total written bytes from the system interface side
system.mem_ctrls.servicedByWrQ                     49                       # Number of DRAM read bursts serviced by the write queue
system.mem_ctrls.mergedWrBursts                     2                       # Number of DRAM write bursts merged with an existing one
system.mem_ctrls.neitherReadNorWriteReqs           14                       # Number of requests that are neither read nor write
system.mem_ctrls.perBankRdBursts::0               212                       # Per bank write bursts
system.mem_ctrls.perBankRdBursts::1               361                       # Per bank write bursts
system.mem_ctrls.perBankRdBursts::2               225                       # Per bank write bursts
system.mem_ctrls.perBankRdBursts::3               255                       # Per bank write bursts
system.mem_ctrls.perBankRdBursts::4               179                       # Per bank write bursts
system.mem_ctrls.perBankRdBursts::5               179                       # Per bank write bursts
system.mem_ctrls.perBankRdBursts::6               250                       # Per bank write bursts
system.mem_ctrls.perBankRdBursts::7               171                       # Per bank write bursts
system.mem_ctrls.perBankRdBursts::8                25                       # Per bank write bursts
system.mem_ctrls.perBankRdBursts::9                10                       # Per bank write bursts
system.mem_ctrls.perBankRdBursts::10                0                       # Per bank write bursts
system.mem_ctrls.perBankRdBursts::11               14                       # Per bank write bursts
system.mem_ctrls.perBankRdBursts::12                9                       # Per bank write bursts
system.mem_ctrls.perBankRdBursts::13               38                       # Per bank write bursts
system.mem_ctrls.perBankRdBursts::14               40                       # Per bank write bursts
system.mem_ctrls.perBankRdBursts::15              114                       # Per bank write bursts
system.mem_ctrls.perBankWrBursts::0                 1                       # Per bank write bursts
system.mem_ctrls.perBankWrBursts::1                 1                       # Per bank write bursts
system.mem_ctrls.perBankWrBursts::2                 4                       # Per bank write bursts
system.mem_ctrls.perBankWrBursts::3                19                       # Per bank write bursts
system.mem_ctrls.perBankWrBursts::4                 1                       # Per bank write bursts
system.mem_ctrls.perBankWrBursts::5                 0                       # Per bank write bursts
system.mem_ctrls.perBankWrBursts::6                 0                       # Per bank write bursts
system.mem_ctrls.perBankWrBursts::7                15                       # Per bank write bursts
system.mem_ctrls.perBankWrBursts::8                 1                       # Per bank write bursts
system.mem_ctrls.perBankWrBursts::9                 0                       # Per bank write bursts
system.mem_ctrls.perBankWrBursts::10                0                       # Per bank write bursts
system.mem_ctrls.perBankWrBursts::11                0                       # Per bank write bursts
system.mem_ctrls.perBankWrBursts::12                0                       # Per bank write bursts
system.mem_ctrls.perBankWrBursts::13                0                       # Per bank write bursts
system.mem_ctrls.perBankWrBursts::14                0                       # Per bank write bursts
system.mem_ctrls.perBankWrBursts::15               27                       # Per bank write bursts
system.mem_ctrls.numRdRetry                         0                       # Number of times read queue was full causing retry
system.mem_ctrls.numWrRetry                         0                       # Number of times write queue was full causing retry
system.mem_ctrls.totGap                      80252000                       # Total gap between requests
system.mem_ctrls.readPktSize::0                     0                       # Read request sizes (log2)
system.mem_ctrls.readPktSize::1                     0                       # Read request sizes (log2)
system.mem_ctrls.readPktSize::2                     0                       # Read request sizes (log2)
system.mem_ctrls.readPktSize::3                     0                       # Read request sizes (log2)
system.mem_ctrls.readPktSize::4                     0                       # Read request sizes (log2)
system.mem_ctrls.readPktSize::5                     0                       # Read request sizes (log2)
system.mem_ctrls.readPktSize::6                  2131                       # Read request sizes (log2)
system.mem_ctrls.writePktSize::0                    0                       # Write request sizes (log2)
system.mem_ctrls.writePktSize::1                    0                       # Write request sizes (log2)
system.mem_ctrls.writePktSize::2                    0                       # Write request sizes (log2)
system.mem_ctrls.writePktSize::3                    0                       # Write request sizes (log2)
system.mem_ctrls.writePktSize::4                    0                       # Write request sizes (log2)
system.mem_ctrls.writePktSize::5                    0                       # Write request sizes (log2)
system.mem_ctrls.writePktSize::6                   96                       # Write request sizes (log2)
system.mem_ctrls.rdQLenPdf::0                     882                       # What read queue length does an incoming req see
system.mem_ctrls.rdQLenPdf::1                     577                       # What read queue length does an incoming req see
system.mem_ctrls.rdQLenPdf::2                     130                       # What read queue length does an incoming req see
system.mem_ctrls.rdQLenPdf::3                      68                       # What read queue length does an incoming req see
system.mem_ctrls.rdQLenPdf::4                      67                       # What read queue length does an incoming req see
system.mem_ctrls.rdQLenPdf::5                      49                       # What read queue length does an incoming req see
system.mem_ctrls.rdQLenPdf::6                      52                       # What read queue length does an incoming req see
system.mem_ctrls.rdQLenPdf::7                      30                       # What read queue length does an incoming req see
system.mem_ctrls.rdQLenPdf::8                      31                       # What read queue length does an incoming req see
system.mem_ctrls.rdQLenPdf::9                      39                       # What read queue length does an incoming req see
system.mem_ctrls.rdQLenPdf::10                     36                       # What read queue length does an incoming req see
system.mem_ctrls.rdQLenPdf::11                     33                       # What read queue length does an incoming req see
system.mem_ctrls.rdQLenPdf::12                     45                       # What read queue length does an incoming req see
system.mem_ctrls.rdQLenPdf::13                     18                       # What read queue length does an incoming req see
system.mem_ctrls.rdQLenPdf::14                     13                       # What read queue length does an incoming req see
system.mem_ctrls.rdQLenPdf::15                      7                       # What read queue length does an incoming req see
system.mem_ctrls.rdQLenPdf::16                      5                       # What read queue length does an incoming req see
system.mem_ctrls.rdQLenPdf::17                      0                       # What read queue length does an incoming req see
system.mem_ctrls.rdQLenPdf::18                      0                       # What read queue length does an incoming req see
system.mem_ctrls.rdQLenPdf::19                      0                       # What read queue length does an incoming req see
system.mem_ctrls.rdQLenPdf::20                      0                       # What read queue length does an incoming req see
system.mem_ctrls.rdQLenPdf::21                      0                       # What read queue length does an incoming req see
system.mem_ctrls.rdQLenPdf::22                      0                       # What read queue length does an incoming req see
system.mem_ctrls.rdQLenPdf::23                      0                       # What read queue length does an incoming req see
system.mem_ctrls.rdQLenPdf::24                      0                       # What read queue length does an incoming req see
system.mem_ctrls.rdQLenPdf::25                      0                       # What read queue length does an incoming req see
system.mem_ctrls.rdQLenPdf::26                      0                       # What read queue length does an incoming req see
system.mem_ctrls.rdQLenPdf::27                      0                       # What read queue length does an incoming req see
system.mem_ctrls.rdQLenPdf::28                      0                       # What read queue length does an incoming req see
system.mem_ctrls.rdQLenPdf::29                      0                       # What read queue length does an incoming req see
system.mem_ctrls.rdQLenPdf::30                      0                       # What read queue length does an incoming req see
system.mem_ctrls.rdQLenPdf::31                      0                       # What read queue length does an incoming req see
system.mem_ctrls.wrQLenPdf::0                       1                       # What write queue length does an incoming req see
system.mem_ctrls.wrQLenPdf::1                       1                       # What write queue length does an incoming req see
system.mem_ctrls.wrQLenPdf::2                       1                       # What write queue length does an incoming req see
system.mem_ctrls.wrQLenPdf::3                       1                       # What write queue length does an incoming req see
system.mem_ctrls.wrQLenPdf::4                       1                       # What write queue length does an incoming req see
system.mem_ctrls.wrQLenPdf::5                       1                       # What write queue length does an incoming req see
system.mem_ctrls.wrQLenPdf::6                       1                       # What write queue length does an incoming req see
system.mem_ctrls.wrQLenPdf::7                       1                       # What write queue length does an incoming req see
system.mem_ctrls.wrQLenPdf::8                       1                       # What write queue length does an incoming req see
system.mem_ctrls.wrQLenPdf::9                       1                       # What write queue length does an incoming req see
system.mem_ctrls.wrQLenPdf::10                      1                       # What write queue length does an incoming req see
system.mem_ctrls.wrQLenPdf::11                      1                       # What write queue length does an incoming req see
system.mem_ctrls.wrQLenPdf::12                      1                       # What write queue length does an incoming req see
system.mem_ctrls.wrQLenPdf::13                      1                       # What write queue length does an incoming req see
system.mem_ctrls.wrQLenPdf::14                      1                       # What write queue length does an incoming req see
system.mem_ctrls.wrQLenPdf::15                      2                       # What write queue length does an incoming req see
system.mem_ctrls.wrQLenPdf::16                      4                       # What write queue length does an incoming req see
system.mem_ctrls.wrQLenPdf::17                      5                       # What write queue length does an incoming req see
system.mem_ctrls.wrQLenPdf::18                      5                       # What write queue length does an incoming req see
system.mem_ctrls.wrQLenPdf::19                      5                       # What write queue length does an incoming req see
system.mem_ctrls.wrQLenPdf::20                      5                       # What write queue length does an incoming req see
system.mem_ctrls.wrQLenPdf::21                      6                       # What write queue length does an incoming req see
system.mem_ctrls.wrQLenPdf::22                      5                       # What write queue length does an incoming req see
system.mem_ctrls.wrQLenPdf::23                      5                       # What write queue length does an incoming req see
system.mem_ctrls.wrQLenPdf::24                      5                       # What write queue length does an incoming req see
system.mem_ctrls.wrQLenPdf::25                      4                       # What write queue length does an incoming req see
system.mem_ctrls.wrQLenPdf::26                      4                       # What write queue length does an incoming req see
system.mem_ctrls.wrQLenPdf::27                      4                       # What write queue length does an incoming req see
system.mem_ctrls.wrQLenPdf::28                      4                       # What write queue length does an incoming req see
system.mem_ctrls.wrQLenPdf::29                      4                       # What write queue length does an incoming req see
system.mem_ctrls.wrQLenPdf::30                      4                       # What write queue length does an incoming req see
system.mem_ctrls.wrQLenPdf::31                      4                       # What write queue length does an incoming req see
system.mem_ctrls.wrQLenPdf::32                      4                       # What write queue length does an incoming req see
system.mem_ctrls.wrQLenPdf::33                      0                       # What write queue length does an incoming req see
system.mem_ctrls.wrQLenPdf::34                      0                       # What write queue length does an incoming req see
system.mem_ctrls.wrQLenPdf::35                      0                       # What write queue length does an incoming req see
system.mem_ctrls.wrQLenPdf::36                      0                       # What write queue length does an incoming req see
system.mem_ctrls.wrQLenPdf::37                      0                       # What write queue length does an incoming req see
system.mem_ctrls.wrQLenPdf::38                      0                       # What write queue length does an incoming req see
system.mem_ctrls.wrQLenPdf::39                      0                       # What write queue length does an incoming req see
system.mem_ctrls.wrQLenPdf::40                      0                       # What write queue length does an incoming req see
system.mem_ctrls.wrQLenPdf::41                      0                       # What write queue length does an incoming req see
system.mem_ctrls.wrQLenPdf::42                      0                       # What write queue length does an incoming req see
system.mem_ctrls.wrQLenPdf::43                      0                       # What write queue length does an incoming req see
system.mem_ctrls.wrQLenPdf::44                      0                       # What write queue length does an incoming req see
system.mem_ctrls.wrQLenPdf::45                      0                       # What write queue length does an incoming req see
system.mem_ctrls.wrQLenPdf::46                      0                       # What write queue length does an incoming req see
system.mem_ctrls.wrQLenPdf::47                      0                       # What write queue length does an incoming req see
system.mem_ctrls.wrQLenPdf::48                      0                       # What write queue length does an incoming req see
system.mem_ctrls.wrQLenPdf::49                      0                       # What write queue length does an incoming req see
system.mem_ctrls.wrQLenPdf::50                      0                       # What write queue length does an incoming req see
system.mem_ctrls.wrQLenPdf::51                      0                       # What write queue length does an incoming req see
system.mem_ctrls.wrQLenPdf::52                      0                       # What write queue length does an incoming req see
system.mem_ctrls.wrQLenPdf::53                      0                       # What write queue length does an incoming req see
system.mem_ctrls.wrQLenPdf::54                      0                       # What write queue length does an incoming req see
system.mem_ctrls.wrQLenPdf::55                      0                       # What write queue length does an incoming req see
system.mem_ctrls.wrQLenPdf::56                      0                       # What write queue length does an incoming req see
system.mem_ctrls.wrQLenPdf::57                      0                       # What write queue length does an incoming req see
system.mem_ctrls.wrQLenPdf::58                      0                       # What write queue length does an incoming req see
system.mem_ctrls.wrQLenPdf::59                      0                       # What write queue length does an incoming req see
system.mem_ctrls.wrQLenPdf::60                      0                       # What write queue length does an incoming req see
system.mem_ctrls.wrQLenPdf::61                      0                       # What write queue length does an incoming req see
system.mem_ctrls.wrQLenPdf::62                      0                       # What write queue length does an incoming req see
system.mem_ctrls.wrQLenPdf::63                      0                       # What write queue length does an incoming req see
system.mem_ctrls.bytesPerActivate::samples          360                       # Bytes accessed per row activation
system.mem_ctrls.bytesPerActivate::mean    376.533333                       # Bytes accessed per row activation
system.mem_ctrls.bytesPerActivate::gmean   211.128846                       # Bytes accessed per row activation
system.mem_ctrls.bytesPerActivate::stdev   375.878461                       # Bytes accessed per row activation
system.mem_ctrls.bytesPerActivate::0-127          132     36.67%     36.67% # Bytes accessed per row activation
system.mem_ctrls.bytesPerActivate::128-255           66     18.33%     55.00% # Bytes accessed per row activation
system.mem_ctrls.bytesPerActivate::256-383           28      7.78%     62.78% # Bytes accessed per row activation
system.mem_ctrls.bytesPerActivate::384-511           24      6.67%     69.44% # Bytes accessed per row activation
system.mem_ctrls.bytesPerActivate::512-639           14      3.89%     73.33% # Bytes accessed per row activation
system.mem_ctrls.bytesPerActivate::640-767            8      2.22%     75.56% # Bytes accessed per row activation
system.mem_ctrls.bytesPerActivate::768-895           13      3.61%     79.17% # Bytes accessed per row activation
system.mem_ctrls.bytesPerActivate::896-1023            7      1.94%     81.11% # Bytes accessed per row activation
system.mem_ctrls.bytesPerActivate::1024-1151           68     18.89%    100.00% # Bytes accessed per row activation
system.mem_ctrls.bytesPerActivate::total          360                       # Bytes accessed per row activation
system.mem_ctrls.rdPerTurnAround::samples            4                       # Reads before turning the bus around for writes
system.mem_ctrls.rdPerTurnAround::mean     375.250000                       # Reads before turning the bus around for writes
system.mem_ctrls.rdPerTurnAround::gmean    155.983815                       # Reads before turning the bus around for writes
system.mem_ctrls.rdPerTurnAround::stdev    565.270658                       # Reads before turning the bus around for writes
system.mem_ctrls.rdPerTurnAround::0-63              1     25.00%     25.00% # Reads before turning the bus around for writes
system.mem_ctrls.rdPerTurnAround::64-127            1     25.00%     50.00% # Reads before turning the bus around for writes
system.mem_ctrls.rdPerTurnAround::128-191            1     25.00%     75.00% # Reads before turning the bus around for writes
system.mem_ctrls.rdPerTurnAround::1216-1279            1     25.00%    100.00% # Reads before turning the bus around for writes
system.mem_ctrls.rdPerTurnAround::total             4                       # Reads before turning the bus around for writes
system.mem_ctrls.wrPerTurnAround::samples            4                       # Writes before turning the bus around for reads
system.mem_ctrls.wrPerTurnAround::mean      17.250000                       # Writes before turning the bus around for reads
system.mem_ctrls.wrPerTurnAround::gmean     17.125561                       # Writes before turning the bus around for reads
system.mem_ctrls.wrPerTurnAround::stdev      2.500000                       # Writes before turning the bus around for reads
system.mem_ctrls.wrPerTurnAround::16                3     75.00%     75.00% # Writes before turning the bus around for reads
system.mem_ctrls.wrPerTurnAround::21                1     25.00%    100.00% # Writes before turning the bus around for reads
system.mem_ctrls.wrPerTurnAround::total             4                       # Writes before turning the bus around for reads
system.mem_ctrls.totQLat                     39997000                       # Total ticks spent queuing
system.mem_ctrls.totMemAccLat                79034500                       # Total ticks spent from burst creation until serviced by the DRAM
system.mem_ctrls.totBusLat                   10410000                       # Total ticks spent in databus transfers
system.mem_ctrls.avgQLat                     19210.85                       # Average queueing delay per DRAM burst
system.mem_ctrls.avgBusLat                    5000.00                       # Average bus latency per DRAM burst
system.mem_ctrls.avgMemAccLat                37960.85                       # Average memory access latency per DRAM burst
system.mem_ctrls.avgRdBW                      1660.21                       # Average DRAM read bandwidth in MiByte/s
system.mem_ctrls.avgWrBW                        55.02                       # Average achieved write bandwidth in MiByte/s
system.mem_ctrls.avgRdBWSys                   1699.29                       # Average system read bandwidth in MiByte/s
system.mem_ctrls.avgWrBWSys                     76.55                       # Average system write bandwidth in MiByte/s
system.mem_ctrls.peakBW                      12800.00                       # Theoretical peak bandwidth in MiByte/s
system.mem_ctrls.busUtil                        13.40                       # Data bus utilization in percentage
system.mem_ctrls.busUtilRead                    12.97                       # Data bus utilization in percentage for reads
system.mem_ctrls.busUtilWrite                    0.43                       # Data bus utilization in percentage for writes
system.mem_ctrls.avgRdQLen                       2.03                       # Average read queue length when enqueuing
system.mem_ctrls.avgWrQLen                      12.63                       # Average write queue length when enqueuing
system.mem_ctrls.readRowHits                     1723                       # Number of row buffer hits during reads
system.mem_ctrls.writeRowHits                      58                       # Number of row buffer hits during writes
system.mem_ctrls.readRowHitRate                 82.76                       # Row buffer hit rate for reads
system.mem_ctrls.writeRowHitRate                61.70                       # Row buffer hit rate for writes
system.mem_ctrls.avgGap                      36035.92                       # Average gap between requests
system.mem_ctrls.pageHitRate                    81.85                       # Row buffer hit rate, read and write combined
system.mem_ctrls_0.actEnergy                  2336040                       # Energy for activate commands per rank (pJ)
system.mem_ctrls_0.preEnergy                  1274625                       # Energy for precharge commands per rank (pJ)
system.mem_ctrls_0.readEnergy                14118000                       # Energy for read commands per rank (pJ)
system.mem_ctrls_0.writeEnergy                 265680                       # Energy for write commands per rank (pJ)
system.mem_ctrls_0.refreshEnergy              5085600                       # Energy for refresh commands per rank (pJ)
system.mem_ctrls_0.actBackEnergy             50061960                       # Energy for active background per rank (pJ)
system.mem_ctrls_0.preBackEnergy              2959500                       # Energy for precharge background per rank (pJ)
system.mem_ctrls_0.totalEnergy               76101405                       # Total energy per rank (pJ)
system.mem_ctrls_0.averagePower            974.129156                       # Core power per rank (mW)
system.mem_ctrls_0.memoryStateTime::IDLE      4464500                       # Time in different power states
system.mem_ctrls_0.memoryStateTime::REF       2600000                       # Time in different power states
system.mem_ctrls_0.memoryStateTime::PRE_PDN            0                       # Time in different power states
system.mem_ctrls_0.memoryStateTime::ACT      71071750                       # Time in different power states
system.mem_ctrls_0.memoryStateTime::ACT_PDN            0                       # Time in different power states
system.mem_ctrls_1.actEnergy                   332640                       # Energy for activate commands per rank (pJ)
system.mem_ctrls_1.preEnergy                   181500                       # Energy for precharge commands per rank (pJ)
system.mem_ctrls_1.readEnergy                 1630200                       # Energy for read commands per rank (pJ)
system.mem_ctrls_1.writeEnergy                 181440                       # Energy for write commands per rank (pJ)
system.mem_ctrls_1.refreshEnergy              5085600                       # Energy for refresh commands per rank (pJ)
system.mem_ctrls_1.actBackEnergy             32860215                       # Energy for active background per rank (pJ)
system.mem_ctrls_1.preBackEnergy             18048750                       # Energy for precharge background per rank (pJ)
system.mem_ctrls_1.totalEnergy               58320345                       # Total energy per rank (pJ)
system.mem_ctrls_1.averagePower            746.524305                       # Core power per rank (mW)
system.mem_ctrls_1.memoryStateTime::IDLE     29884750                       # Time in different power states
system.mem_ctrls_1.memoryStateTime::REF       2600000                       # Time in different power states
system.mem_ctrls_1.memoryStateTime::PRE_PDN            0                       # Time in different power states
system.mem_ctrls_1.memoryStateTime::ACT      45732750                       # Time in different power states
system.mem_ctrls_1.memoryStateTime::ACT_PDN            0                       # Time in different power states
system.cpu0.branchPred.lookups                  24137                       # Number of BP lookups
system.cpu0.branchPred.condPredicted            21805                       # Number of conditional branches predicted
system.cpu0.branchPred.condIncorrect             1233                       # Number of conditional branches incorrect
system.cpu0.branchPred.BTBLookups               20527                       # Number of BTB lookups
system.cpu0.branchPred.BTBHits                  17432                       # Number of BTB hits
system.cpu0.branchPred.BTBCorrect                   0                       # Number of correct BTB predictions (this stat may not work properly.
system.cpu0.branchPred.BTBHitPct            84.922297                       # BTB Hit Percentage
system.cpu0.branchPred.usedRAS                    914                       # Number of times the RAS was used to get a target.
system.cpu0.branchPred.RASInCorrect                13                       # Number of incorrect RAS predictions.
system.cpu_voltage_domain.voltage                   1                       # Voltage in Volts
system.cpu_clk_domain.clock                       500                       # Clock period in ticks
system.cpu0.dstage2_mmu.stage2_tlb.walker.walks            0                       # Table walker walks requested
system.cpu0.dstage2_mmu.stage2_tlb.walker.walkRequestOrigin_Requested::Data            0                       # Table walker requests started/completed, data/inst
system.cpu0.dstage2_mmu.stage2_tlb.walker.walkRequestOrigin_Requested::Inst            0                       # Table walker requests started/completed, data/inst
system.cpu0.dstage2_mmu.stage2_tlb.walker.walkRequestOrigin_Requested::total            0                       # Table walker requests started/completed, data/inst
system.cpu0.dstage2_mmu.stage2_tlb.walker.walkRequestOrigin_Completed::Data            0                       # Table walker requests started/completed, data/inst
system.cpu0.dstage2_mmu.stage2_tlb.walker.walkRequestOrigin_Completed::Inst            0                       # Table walker requests started/completed, data/inst
system.cpu0.dstage2_mmu.stage2_tlb.walker.walkRequestOrigin_Completed::total            0                       # Table walker requests started/completed, data/inst
system.cpu0.dstage2_mmu.stage2_tlb.walker.walkRequestOrigin::total            0                       # Table walker requests started/completed, data/inst
system.cpu0.dstage2_mmu.stage2_tlb.inst_hits            0                       # ITB inst hits
system.cpu0.dstage2_mmu.stage2_tlb.inst_misses            0                       # ITB inst misses
system.cpu0.dstage2_mmu.stage2_tlb.read_hits            0                       # DTB read hits
system.cpu0.dstage2_mmu.stage2_tlb.read_misses            0                       # DTB read misses
system.cpu0.dstage2_mmu.stage2_tlb.write_hits            0                       # DTB write hits
system.cpu0.dstage2_mmu.stage2_tlb.write_misses            0                       # DTB write misses
system.cpu0.dstage2_mmu.stage2_tlb.flush_tlb            0                       # Number of times complete TLB was flushed
system.cpu0.dstage2_mmu.stage2_tlb.flush_tlb_mva            0                       # Number of times TLB was flushed by MVA
system.cpu0.dstage2_mmu.stage2_tlb.flush_tlb_mva_asid            0                       # Number of times TLB was flushed by MVA & ASID
system.cpu0.dstage2_mmu.stage2_tlb.flush_tlb_asid            0                       # Number of times TLB was flushed by ASID
system.cpu0.dstage2_mmu.stage2_tlb.flush_entries            0                       # Number of entries that have been flushed from TLB
system.cpu0.dstage2_mmu.stage2_tlb.align_faults            0                       # Number of TLB faults due to alignment restrictions
system.cpu0.dstage2_mmu.stage2_tlb.prefetch_faults            0                       # Number of TLB faults due to prefetch
system.cpu0.dstage2_mmu.stage2_tlb.domain_faults            0                       # Number of TLB faults due to domain restrictions
system.cpu0.dstage2_mmu.stage2_tlb.perms_faults            0                       # Number of TLB faults due to permissions restrictions
system.cpu0.dstage2_mmu.stage2_tlb.read_accesses            0                       # DTB read accesses
system.cpu0.dstage2_mmu.stage2_tlb.write_accesses            0                       # DTB write accesses
system.cpu0.dstage2_mmu.stage2_tlb.inst_accesses            0                       # ITB inst accesses
system.cpu0.dstage2_mmu.stage2_tlb.hits             0                       # DTB hits
system.cpu0.dstage2_mmu.stage2_tlb.misses            0                       # DTB misses
system.cpu0.dstage2_mmu.stage2_tlb.accesses            0                       # DTB accesses
system.cpu0.dtb.walker.walks                        0                       # Table walker walks requested
system.cpu0.dtb.walker.walkRequestOrigin_Requested::Data            0                       # Table walker requests started/completed, data/inst
system.cpu0.dtb.walker.walkRequestOrigin_Requested::Inst            0                       # Table walker requests started/completed, data/inst
system.cpu0.dtb.walker.walkRequestOrigin_Requested::total            0                       # Table walker requests started/completed, data/inst
system.cpu0.dtb.walker.walkRequestOrigin_Completed::Data            0                       # Table walker requests started/completed, data/inst
system.cpu0.dtb.walker.walkRequestOrigin_Completed::Inst            0                       # Table walker requests started/completed, data/inst
system.cpu0.dtb.walker.walkRequestOrigin_Completed::total            0                       # Table walker requests started/completed, data/inst
system.cpu0.dtb.walker.walkRequestOrigin::total            0                       # Table walker requests started/completed, data/inst
system.cpu0.dtb.inst_hits                           0                       # ITB inst hits
system.cpu0.dtb.inst_misses                         0                       # ITB inst misses
system.cpu0.dtb.read_hits                           0                       # DTB read hits
system.cpu0.dtb.read_misses                         0                       # DTB read misses
system.cpu0.dtb.write_hits                          0                       # DTB write hits
system.cpu0.dtb.write_misses                        0                       # DTB write misses
system.cpu0.dtb.flush_tlb                           0                       # Number of times complete TLB was flushed
system.cpu0.dtb.flush_tlb_mva                       0                       # Number of times TLB was flushed by MVA
system.cpu0.dtb.flush_tlb_mva_asid                  0                       # Number of times TLB was flushed by MVA & ASID
system.cpu0.dtb.flush_tlb_asid                      0                       # Number of times TLB was flushed by ASID
system.cpu0.dtb.flush_entries                       0                       # Number of entries that have been flushed from TLB
system.cpu0.dtb.align_faults                        0                       # Number of TLB faults due to alignment restrictions
system.cpu0.dtb.prefetch_faults                     0                       # Number of TLB faults due to prefetch
system.cpu0.dtb.domain_faults                       0                       # Number of TLB faults due to domain restrictions
system.cpu0.dtb.perms_faults                        0                       # Number of TLB faults due to permissions restrictions
system.cpu0.dtb.read_accesses                       0                       # DTB read accesses
system.cpu0.dtb.write_accesses                      0                       # DTB write accesses
system.cpu0.dtb.inst_accesses                       0                       # ITB inst accesses
system.cpu0.dtb.hits                                0                       # DTB hits
system.cpu0.dtb.misses                              0                       # DTB misses
system.cpu0.dtb.accesses                            0                       # DTB accesses
system.cpu0.istage2_mmu.stage2_tlb.walker.walks            0                       # Table walker walks requested
system.cpu0.istage2_mmu.stage2_tlb.walker.walkRequestOrigin_Requested::Data            0                       # Table walker requests started/completed, data/inst
system.cpu0.istage2_mmu.stage2_tlb.walker.walkRequestOrigin_Requested::Inst            0                       # Table walker requests started/completed, data/inst
system.cpu0.istage2_mmu.stage2_tlb.walker.walkRequestOrigin_Requested::total            0                       # Table walker requests started/completed, data/inst
system.cpu0.istage2_mmu.stage2_tlb.walker.walkRequestOrigin_Completed::Data            0                       # Table walker requests started/completed, data/inst
system.cpu0.istage2_mmu.stage2_tlb.walker.walkRequestOrigin_Completed::Inst            0                       # Table walker requests started/completed, data/inst
system.cpu0.istage2_mmu.stage2_tlb.walker.walkRequestOrigin_Completed::total            0                       # Table walker requests started/completed, data/inst
system.cpu0.istage2_mmu.stage2_tlb.walker.walkRequestOrigin::total            0                       # Table walker requests started/completed, data/inst
system.cpu0.istage2_mmu.stage2_tlb.inst_hits            0                       # ITB inst hits
system.cpu0.istage2_mmu.stage2_tlb.inst_misses            0                       # ITB inst misses
system.cpu0.istage2_mmu.stage2_tlb.read_hits            0                       # DTB read hits
system.cpu0.istage2_mmu.stage2_tlb.read_misses            0                       # DTB read misses
system.cpu0.istage2_mmu.stage2_tlb.write_hits            0                       # DTB write hits
system.cpu0.istage2_mmu.stage2_tlb.write_misses            0                       # DTB write misses
system.cpu0.istage2_mmu.stage2_tlb.flush_tlb            0                       # Number of times complete TLB was flushed
system.cpu0.istage2_mmu.stage2_tlb.flush_tlb_mva            0                       # Number of times TLB was flushed by MVA
system.cpu0.istage2_mmu.stage2_tlb.flush_tlb_mva_asid            0                       # Number of times TLB was flushed by MVA & ASID
system.cpu0.istage2_mmu.stage2_tlb.flush_tlb_asid            0                       # Number of times TLB was flushed by ASID
system.cpu0.istage2_mmu.stage2_tlb.flush_entries            0                       # Number of entries that have been flushed from TLB
system.cpu0.istage2_mmu.stage2_tlb.align_faults            0                       # Number of TLB faults due to alignment restrictions
system.cpu0.istage2_mmu.stage2_tlb.prefetch_faults            0                       # Number of TLB faults due to prefetch
system.cpu0.istage2_mmu.stage2_tlb.domain_faults            0                       # Number of TLB faults due to domain restrictions
system.cpu0.istage2_mmu.stage2_tlb.perms_faults            0                       # Number of TLB faults due to permissions restrictions
system.cpu0.istage2_mmu.stage2_tlb.read_accesses            0                       # DTB read accesses
system.cpu0.istage2_mmu.stage2_tlb.write_accesses            0                       # DTB write accesses
system.cpu0.istage2_mmu.stage2_tlb.inst_accesses            0                       # ITB inst accesses
system.cpu0.istage2_mmu.stage2_tlb.hits             0                       # DTB hits
system.cpu0.istage2_mmu.stage2_tlb.misses            0                       # DTB misses
system.cpu0.istage2_mmu.stage2_tlb.accesses            0                       # DTB accesses
system.cpu0.itb.walker.walks                        0                       # Table walker walks requested
system.cpu0.itb.walker.walkRequestOrigin_Requested::Data            0                       # Table walker requests started/completed, data/inst
system.cpu0.itb.walker.walkRequestOrigin_Requested::Inst            0                       # Table walker requests started/completed, data/inst
system.cpu0.itb.walker.walkRequestOrigin_Requested::total            0                       # Table walker requests started/completed, data/inst
system.cpu0.itb.walker.walkRequestOrigin_Completed::Data            0                       # Table walker requests started/completed, data/inst
system.cpu0.itb.walker.walkRequestOrigin_Completed::Inst            0                       # Table walker requests started/completed, data/inst
system.cpu0.itb.walker.walkRequestOrigin_Completed::total            0                       # Table walker requests started/completed, data/inst
system.cpu0.itb.walker.walkRequestOrigin::total            0                       # Table walker requests started/completed, data/inst
system.cpu0.itb.inst_hits                           0                       # ITB inst hits
system.cpu0.itb.inst_misses                         0                       # ITB inst misses
system.cpu0.itb.read_hits                           0                       # DTB read hits
system.cpu0.itb.read_misses                         0                       # DTB read misses
system.cpu0.itb.write_hits                          0                       # DTB write hits
system.cpu0.itb.write_misses                        0                       # DTB write misses
system.cpu0.itb.flush_tlb                           0                       # Number of times complete TLB was flushed
system.cpu0.itb.flush_tlb_mva                       0                       # Number of times TLB was flushed by MVA
system.cpu0.itb.flush_tlb_mva_asid                  0                       # Number of times TLB was flushed by MVA & ASID
system.cpu0.itb.flush_tlb_asid                      0                       # Number of times TLB was flushed by ASID
system.cpu0.itb.flush_entries                       0                       # Number of entries that have been flushed from TLB
system.cpu0.itb.align_faults                        0                       # Number of TLB faults due to alignment restrictions
system.cpu0.itb.prefetch_faults                     0                       # Number of TLB faults due to prefetch
system.cpu0.itb.domain_faults                       0                       # Number of TLB faults due to domain restrictions
system.cpu0.itb.perms_faults                        0                       # Number of TLB faults due to permissions restrictions
system.cpu0.itb.read_accesses                       0                       # DTB read accesses
system.cpu0.itb.write_accesses                      0                       # DTB write accesses
system.cpu0.itb.inst_accesses                       0                       # ITB inst accesses
system.cpu0.itb.hits                                0                       # DTB hits
system.cpu0.itb.misses                              0                       # DTB misses
system.cpu0.itb.accesses                            0                       # DTB accesses
system.cpu0.workload.num_syscalls                 232                       # Number of system calls
system.cpu0.numCycles                          160520                       # number of cpu cycles simulated
system.cpu0.numWorkItemsStarted                     0                       # number of work items this cpu started
system.cpu0.numWorkItemsCompleted                   0                       # number of work items this cpu completed
system.cpu0.fetch.icacheStallCycles             39188                       # Number of cycles fetch is stalled on an Icache miss
system.cpu0.fetch.Insts                        226418                       # Number of instructions fetch has processed
system.cpu0.fetch.Branches                      24137                       # Number of branches that fetch encountered
system.cpu0.fetch.predictedBranches             18346                       # Number of branches that fetch has predicted taken
system.cpu0.fetch.Cycles                        84608                       # Number of cycles fetch has run and was not squashing or blocked
system.cpu0.fetch.SquashCycles                   2621                       # Number of cycles fetch has spent squashing
system.cpu0.fetch.MiscStallCycles                   1                       # Number of cycles fetch has spent waiting on interrupts, or bad addresses, or out of MSHRs
system.cpu0.fetch.PendingTrapStallCycles            1                       # Number of stall cycles due to pending traps
system.cpu0.fetch.CacheLines                    25990                       # Number of cache lines fetched
system.cpu0.fetch.IcacheSquashes                  744                       # Number of outstanding Icache misses that were squashed
system.cpu0.fetch.rateDist::samples            125108                       # Number of instructions fetched each cycle (Total)
system.cpu0.fetch.rateDist::mean             1.951594                       # Number of instructions fetched each cycle (Total)
system.cpu0.fetch.rateDist::stdev            3.180521                       # Number of instructions fetched each cycle (Total)
system.cpu0.fetch.rateDist::underflows              0      0.00%      0.00% # Number of instructions fetched each cycle (Total)
system.cpu0.fetch.rateDist::0                   87050     69.58%     69.58% # Number of instructions fetched each cycle (Total)
system.cpu0.fetch.rateDist::1                    1713      1.37%     70.95% # Number of instructions fetched each cycle (Total)
system.cpu0.fetch.rateDist::2                    2617      2.09%     73.04% # Number of instructions fetched each cycle (Total)
system.cpu0.fetch.rateDist::3                     783      0.63%     73.67% # Number of instructions fetched each cycle (Total)
system.cpu0.fetch.rateDist::4                    2918      2.33%     76.00% # Number of instructions fetched each cycle (Total)
system.cpu0.fetch.rateDist::5                     729      0.58%     76.58% # Number of instructions fetched each cycle (Total)
system.cpu0.fetch.rateDist::6                    2695      2.15%     78.74% # Number of instructions fetched each cycle (Total)
system.cpu0.fetch.rateDist::7                    9447      7.55%     86.29% # Number of instructions fetched each cycle (Total)
system.cpu0.fetch.rateDist::8                   17156     13.71%    100.00% # Number of instructions fetched each cycle (Total)
system.cpu0.fetch.rateDist::overflows               0      0.00%    100.00% # Number of instructions fetched each cycle (Total)
system.cpu0.fetch.rateDist::min_value               0                       # Number of instructions fetched each cycle (Total)
system.cpu0.fetch.rateDist::max_value               8                       # Number of instructions fetched each cycle (Total)
system.cpu0.fetch.rateDist::total              125108                       # Number of instructions fetched each cycle (Total)
system.cpu0.fetch.branchRate                 0.150368                       # Number of branch fetches per cycle
system.cpu0.fetch.rate                       1.410528                       # Number of inst fetches per cycle
system.cpu0.decode.IdleCycles                   36934                       # Number of cycles decode is idle
system.cpu0.decode.BlockedCycles                53407                       # Number of cycles decode is blocked
system.cpu0.decode.RunCycles                    29246                       # Number of cycles decode is running
system.cpu0.decode.UnblockCycles                 4520                       # Number of cycles decode is unblocking
system.cpu0.decode.SquashCycles                  1001                       # Number of cycles decode is squashing
system.cpu0.decode.BranchResolved                 967                       # Number of times decode resolved a branch
system.cpu0.decode.BranchMispred                  324                       # Number of times decode detected a branch misprediction
system.cpu0.decode.DecodedInsts                233919                       # Number of instructions handled by decode
system.cpu0.decode.SquashedInsts                 1171                       # Number of squashed instructions handled by decode
system.cpu0.rename.SquashCycles                  1001                       # Number of cycles rename is squashing
system.cpu0.rename.IdleCycles                   38660                       # Number of cycles rename is idle
system.cpu0.rename.BlockCycles                   4030                       # Number of cycles rename is blocking
system.cpu0.rename.serializeStallCycles         10903                       # count of cycles rename stalled for serializing inst
system.cpu0.rename.RunCycles                    31957                       # Number of cycles rename is running
system.cpu0.rename.UnblockCycles                38557                       # Number of cycles rename is unblocking
system.cpu0.rename.RenamedInsts                231093                       # Number of instructions processed by rename
system.cpu0.rename.ROBFullEvents                  134                       # Number of times rename has blocked due to ROB full
system.cpu0.rename.IQFullEvents                  1911                       # Number of times rename has blocked due to IQ full
system.cpu0.rename.LQFullEvents                   345                       # Number of times rename has blocked due to LQ full
system.cpu0.rename.SQFullEvents                 35382                       # Number of times rename has blocked due to SQ full
system.cpu0.rename.RenamedOperands             285164                       # Number of destination operands rename has renamed
system.cpu0.rename.RenameLookups              1141653                       # Number of register rename lookups that rename has made
system.cpu0.rename.int_rename_lookups          363145                       # Number of integer rename lookups
system.cpu0.rename.fp_rename_lookups               22                       # Number of floating rename lookups
system.cpu0.rename.CommittedMaps               257123                       # Number of HB maps that are committed
system.cpu0.rename.UndoneMaps                   28041                       # Number of HB maps that are undone due to squashing
system.cpu0.rename.serializingInsts               156                       # count of serializing insts renamed
system.cpu0.rename.tempSerializingInsts           155                       # count of temporary serializing insts renamed
system.cpu0.rename.skidInsts                    16664                       # count of insts added to the skid buffer
system.cpu0.memDep0.insertedLoads               41576                       # Number of loads inserted to the mem dependence unit.
system.cpu0.memDep0.insertedStores              22616                       # Number of stores inserted to the mem dependence unit.
system.cpu0.memDep0.conflictingLoads             1018                       # Number of conflicting loads.
system.cpu0.memDep0.conflictingStores             591                       # Number of conflicting stores.
system.cpu0.iq.iqInstsAdded                    226209                       # Number of instructions added to the IQ (excludes non-spec)
system.cpu0.iq.iqNonSpecInstsAdded                310                       # Number of non-speculative instructions added to the IQ
system.cpu0.iq.iqInstsIssued                   215503                       # Number of instructions issued
system.cpu0.iq.iqSquashedInstsIssued              958                       # Number of squashed instructions issued
system.cpu0.iq.iqSquashedInstsExamined          19554                       # Number of squashed instructions iterated over during squash; mainly for profiling
system.cpu0.iq.iqSquashedOperandsExamined        62262                       # Number of squashed operands that are examined and possibly removed from graph
system.cpu0.iq.iqSquashedNonSpecRemoved            91                       # Number of squashed non-spec instructions that were removed
system.cpu0.iq.issued_per_cycle::samples       125108                       # Number of insts issued each cycle
system.cpu0.iq.issued_per_cycle::mean        1.722536                       # Number of insts issued each cycle
system.cpu0.iq.issued_per_cycle::stdev       1.823810                       # Number of insts issued each cycle
system.cpu0.iq.issued_per_cycle::underflows            0      0.00%      0.00% # Number of insts issued each cycle
system.cpu0.iq.issued_per_cycle::0              60646     48.47%     48.47% # Number of insts issued each cycle
system.cpu0.iq.issued_per_cycle::1               7202      5.76%     54.23% # Number of insts issued each cycle
system.cpu0.iq.issued_per_cycle::2               4582      3.66%     57.89% # Number of insts issued each cycle
system.cpu0.iq.issued_per_cycle::3              11575      9.25%     67.15% # Number of insts issued each cycle
system.cpu0.iq.issued_per_cycle::4              41103     32.85%    100.00% # Number of insts issued each cycle
system.cpu0.iq.issued_per_cycle::overflows            0      0.00%    100.00% # Number of insts issued each cycle
system.cpu0.iq.issued_per_cycle::min_value            0                       # Number of insts issued each cycle
system.cpu0.iq.issued_per_cycle::max_value            4                       # Number of insts issued each cycle
system.cpu0.iq.issued_per_cycle::total         125108                       # Number of insts issued each cycle
system.cpu0.iq.fu_full::No_OpClass                  0      0.00%      0.00% # attempts to use FU when none available
system.cpu0.iq.fu_full::IntAlu                      0      0.00%      0.00% # attempts to use FU when none available
system.cpu0.iq.fu_full::IntMult                    11    100.00%    100.00% # attempts to use FU when none available
system.cpu0.iq.fu_full::IntDiv                      0      0.00%    100.00% # attempts to use FU when none available
system.cpu0.iq.fu_full::FloatAdd                    0      0.00%    100.00% # attempts to use FU when none available
system.cpu0.iq.fu_full::FloatCmp                    0      0.00%    100.00% # attempts to use FU when none available
system.cpu0.iq.fu_full::FloatCvt                    0      0.00%    100.00% # attempts to use FU when none available
system.cpu0.iq.fu_full::FloatMult                   0      0.00%    100.00% # attempts to use FU when none available
system.cpu0.iq.fu_full::FloatDiv                    0      0.00%    100.00% # attempts to use FU when none available
system.cpu0.iq.fu_full::FloatSqrt                   0      0.00%    100.00% # attempts to use FU when none available
system.cpu0.iq.fu_full::SimdAdd                     0      0.00%    100.00% # attempts to use FU when none available
system.cpu0.iq.fu_full::SimdAddAcc                  0      0.00%    100.00% # attempts to use FU when none available
system.cpu0.iq.fu_full::SimdAlu                     0      0.00%    100.00% # attempts to use FU when none available
system.cpu0.iq.fu_full::SimdCmp                     0      0.00%    100.00% # attempts to use FU when none available
system.cpu0.iq.fu_full::SimdCvt                     0      0.00%    100.00% # attempts to use FU when none available
system.cpu0.iq.fu_full::SimdMisc                    0      0.00%    100.00% # attempts to use FU when none available
system.cpu0.iq.fu_full::SimdMult                    0      0.00%    100.00% # attempts to use FU when none available
system.cpu0.iq.fu_full::SimdMultAcc                 0      0.00%    100.00% # attempts to use FU when none available
system.cpu0.iq.fu_full::SimdShift                   0      0.00%    100.00% # attempts to use FU when none available
system.cpu0.iq.fu_full::SimdShiftAcc                0      0.00%    100.00% # attempts to use FU when none available
system.cpu0.iq.fu_full::SimdSqrt                    0      0.00%    100.00% # attempts to use FU when none available
system.cpu0.iq.fu_full::SimdFloatAdd                0      0.00%    100.00% # attempts to use FU when none available
system.cpu0.iq.fu_full::SimdFloatAlu                0      0.00%    100.00% # attempts to use FU when none available
system.cpu0.iq.fu_full::SimdFloatCmp                0      0.00%    100.00% # attempts to use FU when none available
system.cpu0.iq.fu_full::SimdFloatCvt                0      0.00%    100.00% # attempts to use FU when none available
system.cpu0.iq.fu_full::SimdFloatDiv                0      0.00%    100.00% # attempts to use FU when none available
system.cpu0.iq.fu_full::SimdFloatMisc               0      0.00%    100.00% # attempts to use FU when none available
system.cpu0.iq.fu_full::SimdFloatMult               0      0.00%    100.00% # attempts to use FU when none available
system.cpu0.iq.fu_full::SimdFloatMultAcc            0      0.00%    100.00% # attempts to use FU when none available
system.cpu0.iq.fu_full::SimdFloatSqrt               0      0.00%    100.00% # attempts to use FU when none available
system.cpu0.iq.fu_full::MemRead                     0      0.00%    100.00% # attempts to use FU when none available
system.cpu0.iq.fu_full::MemWrite                    0      0.00%    100.00% # attempts to use FU when none available
system.cpu0.iq.fu_full::IprAccess                   0      0.00%    100.00% # attempts to use FU when none available
system.cpu0.iq.fu_full::InstPrefetch                0      0.00%    100.00% # attempts to use FU when none available
system.cpu0.iq.FU_type_0::No_OpClass                0      0.00%      0.00% # Type of FU issued
system.cpu0.iq.FU_type_0::IntAlu               126353     58.63%     58.63% # Type of FU issued
system.cpu0.iq.FU_type_0::IntMult               27358     12.69%     71.33% # Type of FU issued
system.cpu0.iq.FU_type_0::IntDiv                    0      0.00%     71.33% # Type of FU issued
system.cpu0.iq.FU_type_0::FloatAdd                  0      0.00%     71.33% # Type of FU issued
system.cpu0.iq.FU_type_0::FloatCmp                  0      0.00%     71.33% # Type of FU issued
system.cpu0.iq.FU_type_0::FloatCvt                  0      0.00%     71.33% # Type of FU issued
system.cpu0.iq.FU_type_0::FloatMult                 0      0.00%     71.33% # Type of FU issued
system.cpu0.iq.FU_type_0::FloatDiv                  0      0.00%     71.33% # Type of FU issued
system.cpu0.iq.FU_type_0::FloatSqrt                 0      0.00%     71.33% # Type of FU issued
system.cpu0.iq.FU_type_0::SimdAdd                   0      0.00%     71.33% # Type of FU issued
system.cpu0.iq.FU_type_0::SimdAddAcc                0      0.00%     71.33% # Type of FU issued
system.cpu0.iq.FU_type_0::SimdAlu                   0      0.00%     71.33% # Type of FU issued
system.cpu0.iq.FU_type_0::SimdCmp                   0      0.00%     71.33% # Type of FU issued
system.cpu0.iq.FU_type_0::SimdCvt                   0      0.00%     71.33% # Type of FU issued
system.cpu0.iq.FU_type_0::SimdMisc                  0      0.00%     71.33% # Type of FU issued
system.cpu0.iq.FU_type_0::SimdMult                  0      0.00%     71.33% # Type of FU issued
system.cpu0.iq.FU_type_0::SimdMultAcc               0      0.00%     71.33% # Type of FU issued
system.cpu0.iq.FU_type_0::SimdShift                 0      0.00%     71.33% # Type of FU issued
system.cpu0.iq.FU_type_0::SimdShiftAcc              0      0.00%     71.33% # Type of FU issued
system.cpu0.iq.FU_type_0::SimdSqrt                  0      0.00%     71.33% # Type of FU issued
system.cpu0.iq.FU_type_0::SimdFloatAdd              0      0.00%     71.33% # Type of FU issued
system.cpu0.iq.FU_type_0::SimdFloatAlu              0      0.00%     71.33% # Type of FU issued
system.cpu0.iq.FU_type_0::SimdFloatCmp              0      0.00%     71.33% # Type of FU issued
system.cpu0.iq.FU_type_0::SimdFloatCvt              0      0.00%     71.33% # Type of FU issued
system.cpu0.iq.FU_type_0::SimdFloatDiv              0      0.00%     71.33% # Type of FU issued
system.cpu0.iq.FU_type_0::SimdFloatMisc             3      0.00%     71.33% # Type of FU issued
system.cpu0.iq.FU_type_0::SimdFloatMult             0      0.00%     71.33% # Type of FU issued
system.cpu0.iq.FU_type_0::SimdFloatMultAcc            0      0.00%     71.33% # Type of FU issued
system.cpu0.iq.FU_type_0::SimdFloatSqrt             0      0.00%     71.33% # Type of FU issued
system.cpu0.iq.FU_type_0::MemRead               40398     18.75%     90.07% # Type of FU issued
system.cpu0.iq.FU_type_0::MemWrite              21391      9.93%    100.00% # Type of FU issued
system.cpu0.iq.FU_type_0::IprAccess                 0      0.00%    100.00% # Type of FU issued
system.cpu0.iq.FU_type_0::InstPrefetch              0      0.00%    100.00% # Type of FU issued
system.cpu0.iq.FU_type_0::total                215503                       # Type of FU issued
system.cpu0.iq.rate                          1.342531                       # Inst issue rate
system.cpu0.iq.fu_busy_cnt                         11                       # FU busy when requested
system.cpu0.iq.fu_busy_rate                  0.000051                       # FU busy rate (busy events/executed inst)
system.cpu0.iq.int_inst_queue_reads            557027                       # Number of integer instruction queue reads
system.cpu0.iq.int_inst_queue_writes           246098                       # Number of integer instruction queue writes
system.cpu0.iq.int_inst_queue_wakeup_accesses       212821                       # Number of integer instruction queue wakeup accesses
system.cpu0.iq.fp_inst_queue_reads                 56                       # Number of floating instruction queue reads
system.cpu0.iq.fp_inst_queue_writes                28                       # Number of floating instruction queue writes
system.cpu0.iq.fp_inst_queue_wakeup_accesses           28                       # Number of floating instruction queue wakeup accesses
system.cpu0.iq.int_alu_accesses                215486                       # Number of integer alu accesses
system.cpu0.iq.fp_alu_accesses                     28                       # Number of floating point alu accesses
system.cpu0.iew.lsq.thread0.forwLoads             117                       # Number of loads that had data forwarded from stores
system.cpu0.iew.lsq.thread0.invAddrLoads            0                       # Number of loads ignored due to an invalid address
system.cpu0.iew.lsq.thread0.squashedLoads         4106                       # Number of loads squashed
system.cpu0.iew.lsq.thread0.ignoredResponses            3                       # Number of memory responses ignored because the instruction is squashed
system.cpu0.iew.lsq.thread0.memOrderViolation           54                       # Number of memory ordering violations
system.cpu0.iew.lsq.thread0.squashedStores         1818                       # Number of stores squashed
system.cpu0.iew.lsq.thread0.invAddrSwpfs            0                       # Number of software prefetches ignored due to an invalid address
system.cpu0.iew.lsq.thread0.blockedLoads            0                       # Number of blocked loads due to partial load-store forwarding
system.cpu0.iew.lsq.thread0.rescheduledLoads          124                       # Number of loads that were rescheduled
system.cpu0.iew.lsq.thread0.cacheBlocked           55                       # Number of times an access to memory failed due to the cache being blocked
system.cpu0.iew.iewIdleCycles                       0                       # Number of cycles IEW is idle
system.cpu0.iew.iewSquashCycles                  1001                       # Number of cycles IEW is squashing
system.cpu0.iew.iewBlockCycles                   2575                       # Number of cycles IEW is blocking
system.cpu0.iew.iewUnblockCycles                 1273                       # Number of cycles IEW is unblocking
system.cpu0.iew.iewDispatchedInsts             226527                       # Number of instructions dispatched to IQ
system.cpu0.iew.iewDispSquashedInsts              213                       # Number of squashed instructions skipped by dispatch
system.cpu0.iew.iewDispLoadInsts                41576                       # Number of dispatched load instructions
system.cpu0.iew.iewDispStoreInsts               22616                       # Number of dispatched store instructions
system.cpu0.iew.iewDispNonSpecInsts               148                       # Number of dispatched non-speculative instructions
system.cpu0.iew.iewIQFullEvents                    26                       # Number of times the IQ has become full, causing a stall
system.cpu0.iew.iewLSQFullEvents                 1235                       # Number of times the LSQ has become full, causing a stall
system.cpu0.iew.memOrderViolationEvents            54                       # Number of memory order violations
system.cpu0.iew.predictedTakenIncorrect           423                       # Number of branches that were predicted taken incorrectly
system.cpu0.iew.predictedNotTakenIncorrect          552                       # Number of branches that were predicted not taken incorrectly
system.cpu0.iew.branchMispredicts                 975                       # Number of branch mispredicts detected at execute
system.cpu0.iew.iewExecutedInsts               214292                       # Number of executed instructions
system.cpu0.iew.iewExecLoadInsts                39799                       # Number of load instructions executed
system.cpu0.iew.iewExecSquashedInsts             1211                       # Number of squashed instructions skipped in execute
system.cpu0.iew.exec_swp                            0                       # number of swp insts executed
system.cpu0.iew.exec_nop                            8                       # number of nop insts executed
system.cpu0.iew.exec_refs                       61020                       # number of memory reference insts executed
system.cpu0.iew.exec_branches                   19448                       # Number of branches executed
system.cpu0.iew.exec_stores                     21221                       # Number of stores executed
system.cpu0.iew.exec_rate                    1.334986                       # Inst execution rate
system.cpu0.iew.wb_sent                        213315                       # cumulative count of insts sent to commit
system.cpu0.iew.wb_count                       212849                       # cumulative count of insts written-back
[...]
system.cpu7.icache.overall_miss_latency::cpu7.inst      5391250                       # number of overall miss cycles
system.cpu7.icache.overall_miss_latency::total      5391250                       # number of overall miss cycles
system.cpu7.icache.ReadReq_accesses::cpu7.inst        18054                       # number of ReadReq accesses(hits+misses)
system.cpu7.icache.ReadReq_accesses::total        18054                       # number of ReadReq accesses(hits+misses)
system.cpu7.icache.demand_accesses::cpu7.inst        18054                       # number of demand (read+write) accesses
system.cpu7.icache.demand_accesses::total        18054                       # number of demand (read+write) accesses
system.cpu7.icache.overall_accesses::cpu7.inst        18054                       # number of overall (read+write) accesses
system.cpu7.icache.overall_accesses::total        18054                       # number of overall (read+write) accesses
system.cpu7.icache.ReadReq_miss_rate::cpu7.inst     0.003988                       # miss rate for ReadReq accesses
system.cpu7.icache.ReadReq_miss_rate::total     0.003988                       # miss rate for ReadReq accesses
system.cpu7.icache.demand_miss_rate::cpu7.inst     0.003988                       # miss rate for demand accesses
system.cpu7.icache.demand_miss_rate::total     0.003988                       # miss rate for demand accesses
system.cpu7.icache.overall_miss_rate::cpu7.inst     0.003988                       # miss rate for overall accesses
system.cpu7.icache.overall_miss_rate::total     0.003988                       # miss rate for overall accesses
system.cpu7.icache.ReadReq_avg_miss_latency::cpu7.inst 74878.472222                       # average ReadReq miss latency
system.cpu7.icache.ReadReq_avg_miss_latency::total 74878.472222                       # average ReadReq miss latency
system.cpu7.icache.demand_avg_miss_latency::cpu7.inst 74878.472222                       # average overall miss latency
system.cpu7.icache.demand_avg_miss_latency::total 74878.472222                       # average overall miss latency
system.cpu7.icache.overall_avg_miss_latency::cpu7.inst 74878.472222                       # average overall miss latency
system.cpu7.icache.overall_avg_miss_latency::total 74878.472222                       # average overall miss latency
system.cpu7.icache.blocked_cycles::no_mshrs          137                       # number of cycles access was blocked
system.cpu7.icache.blocked_cycles::no_targets            0                       # number of cycles access was blocked
system.cpu7.icache.blocked::no_mshrs                1                       # number of cycles access was blocked
system.cpu7.icache.blocked::no_targets              0                       # number of cycles access was blocked
system.cpu7.icache.avg_blocked_cycles::no_mshrs          137                       # average number of cycles each access was blocked
system.cpu7.icache.avg_blocked_cycles::no_targets          nan                       # average number of cycles each access was blocked
system.cpu7.icache.fast_writes                      0                       # number of fast writes performed
system.cpu7.icache.cache_copies                     0                       # number of cache copies performed
system.cpu7.icache.ReadReq_mshr_hits::cpu7.inst           21                       # number of ReadReq MSHR hits
system.cpu7.icache.ReadReq_mshr_hits::total           21                       # number of ReadReq MSHR hits
system.cpu7.icache.demand_mshr_hits::cpu7.inst           21                       # number of demand (read+write) MSHR hits
system.cpu7.icache.demand_mshr_hits::total           21                       # number of demand (read+write) MSHR hits
system.cpu7.icache.overall_mshr_hits::cpu7.inst           21                       # number of overall MSHR hits
system.cpu7.icache.overall_mshr_hits::total           21                       # number of overall MSHR hits
system.cpu7.icache.ReadReq_mshr_misses::cpu7.inst           51                       # number of ReadReq MSHR misses
system.cpu7.icache.ReadReq_mshr_misses::total           51                       # number of ReadReq MSHR misses
system.cpu7.icache.demand_mshr_misses::cpu7.inst           51                       # number of demand (read+write) MSHR misses
system.cpu7.icache.demand_mshr_misses::total           51                       # number of demand (read+write) MSHR misses
system.cpu7.icache.overall_mshr_misses::cpu7.inst           51                       # number of overall MSHR misses
system.cpu7.icache.overall_mshr_misses::total           51                       # number of overall MSHR misses
system.cpu7.icache.ReadReq_mshr_miss_latency::cpu7.inst      4078750                       # number of ReadReq MSHR miss cycles
system.cpu7.icache.ReadReq_mshr_miss_latency::total      4078750                       # number of ReadReq MSHR miss cycles
system.cpu7.icache.demand_mshr_miss_latency::cpu7.inst      4078750                       # number of demand (read+write) MSHR miss cycles
system.cpu7.icache.demand_mshr_miss_latency::total      4078750                       # number of demand (read+write) MSHR miss cycles
system.cpu7.icache.overall_mshr_miss_latency::cpu7.inst      4078750                       # number of overall MSHR miss cycles
system.cpu7.icache.overall_mshr_miss_latency::total      4078750                       # number of overall MSHR miss cycles
system.cpu7.icache.ReadReq_mshr_miss_rate::cpu7.inst     0.002825                       # mshr miss rate for ReadReq accesses
system.cpu7.icache.ReadReq_mshr_miss_rate::total     0.002825                       # mshr miss rate for ReadReq accesses
system.cpu7.icache.demand_mshr_miss_rate::cpu7.inst     0.002825                       # mshr miss rate for demand accesses
system.cpu7.icache.demand_mshr_miss_rate::total     0.002825                       # mshr miss rate for demand accesses
system.cpu7.icache.overall_mshr_miss_rate::cpu7.inst     0.002825                       # mshr miss rate for overall accesses
system.cpu7.icache.overall_mshr_miss_rate::total     0.002825                       # mshr miss rate for overall accesses
system.cpu7.icache.ReadReq_avg_mshr_miss_latency::cpu7.inst 79975.490196                       # average ReadReq mshr miss latency
system.cpu7.icache.ReadReq_avg_mshr_miss_latency::total 79975.490196                       # average ReadReq mshr miss latency
system.cpu7.icache.demand_avg_mshr_miss_latency::cpu7.inst 79975.490196                       # average overall mshr miss latency
system.cpu7.icache.demand_avg_mshr_miss_latency::total 79975.490196                       # average overall mshr miss latency
system.cpu7.icache.overall_avg_mshr_miss_latency::cpu7.inst 79975.490196                       # average overall mshr miss latency
system.cpu7.icache.overall_avg_mshr_miss_latency::total 79975.490196                       # average overall mshr miss latency
system.cpu7.icache.no_allocate_misses               0                       # Number of misses that were no-allocate
system.membus.trans_dist::ReadReq                3055                       # Transaction distribution
system.membus.trans_dist::ReadResp               3054                       # Transaction distribution
system.membus.trans_dist::Writeback                96                       # Transaction distribution
system.membus.trans_dist::UpgradeReq               21                       # Transaction distribution
system.membus.trans_dist::SCUpgradeReq             23                       # Transaction distribution
system.membus.trans_dist::UpgradeResp              44                       # Transaction distribution
system.membus.trans_dist::SCUpgradeFailReq            1                       # Transaction distribution
system.membus.trans_dist::UpgradeFailResp            1                       # Transaction distribution
system.membus.trans_dist::ReadExReq               997                       # Transaction distribution
system.membus.trans_dist::ReadExResp              997                       # Transaction distribution
system.membus.pkt_count_system.cpu0.icache.mem_side::system.mem_ctrls.port         1231                       # Packet count per connected master and slave (bytes)
system.membus.pkt_count_system.cpu0.dcache.mem_side::system.mem_ctrls.port         2050                       # Packet count per connected master and slave (bytes)
system.membus.pkt_count_system.cpu1.icache.mem_side::system.mem_ctrls.port          106                       # Packet count per connected master and slave (bytes)
system.membus.pkt_count_system.cpu1.dcache.mem_side::system.mem_ctrls.port          332                       # Packet count per connected master and slave (bytes)
system.membus.pkt_count_system.cpu2.icache.mem_side::system.mem_ctrls.port          106                       # Packet count per connected master and slave (bytes)
system.membus.pkt_count_system.cpu2.dcache.mem_side::system.mem_ctrls.port          324                       # Packet count per connected master and slave (bytes)
system.membus.pkt_count_system.cpu3.icache.mem_side::system.mem_ctrls.port          108                       # Packet count per connected master and slave (bytes)
system.membus.pkt_count_system.cpu3.dcache.mem_side::system.mem_ctrls.port          327                       # Packet count per connected master and slave (bytes)
system.membus.pkt_count_system.cpu4.icache.mem_side::system.mem_ctrls.port          112                       # Packet count per connected master and slave (bytes)
system.membus.pkt_count_system.cpu4.dcache.mem_side::system.mem_ctrls.port          342                       # Packet count per connected master and slave (bytes)
system.membus.pkt_count_system.cpu5.icache.mem_side::system.mem_ctrls.port          102                       # Packet count per connected master and slave (bytes)
system.membus.pkt_count_system.cpu5.dcache.mem_side::system.mem_ctrls.port          332                       # Packet count per connected master and slave (bytes)
system.membus.pkt_count_system.cpu6.icache.mem_side::system.mem_ctrls.port          104                       # Packet count per connected master and slave (bytes)
system.membus.pkt_count_system.cpu6.dcache.mem_side::system.mem_ctrls.port          332                       # Packet count per connected master and slave (bytes)
system.membus.pkt_count_system.cpu7.icache.mem_side::system.mem_ctrls.port          102                       # Packet count per connected master and slave (bytes)
system.membus.pkt_count_system.cpu7.dcache.mem_side::system.mem_ctrls.port          327                       # Packet count per connected master and slave (bytes)
system.membus.pkt_count::total                   6337                       # Packet count per connected master and slave (bytes)
system.membus.pkt_size_system.cpu0.icache.mem_side::system.mem_ctrls.port        39360                       # Cumulative packet size per connected master and slave (bytes)
system.membus.pkt_size_system.cpu0.dcache.mem_side::system.mem_ctrls.port        67648                       # Cumulative packet size per connected master and slave (bytes)
system.membus.pkt_size_system.cpu1.icache.mem_side::system.mem_ctrls.port         3392                       # Cumulative packet size per connected master and slave (bytes)
system.membus.pkt_size_system.cpu1.dcache.mem_side::system.mem_ctrls.port         1408                       # Cumulative packet size per connected master and slave (bytes)
system.membus.pkt_size_system.cpu2.icache.mem_side::system.mem_ctrls.port         3392                       # Cumulative packet size per connected master and slave (bytes)
system.membus.pkt_size_system.cpu2.dcache.mem_side::system.mem_ctrls.port         1472                       # Cumulative packet size per connected master and slave (bytes)
system.membus.pkt_size_system.cpu3.icache.mem_side::system.mem_ctrls.port         3456                       # Cumulative packet size per connected master and slave (bytes)
system.membus.pkt_size_system.cpu3.dcache.mem_side::system.mem_ctrls.port         1600                       # Cumulative packet size per connected master and slave (bytes)
system.membus.pkt_size_system.cpu4.icache.mem_side::system.mem_ctrls.port         3584                       # Cumulative packet size per connected master and slave (bytes)
system.membus.pkt_size_system.cpu4.dcache.mem_side::system.mem_ctrls.port         2176                       # Cumulative packet size per connected master and slave (bytes)
system.membus.pkt_size_system.cpu5.icache.mem_side::system.mem_ctrls.port         3264                       # Cumulative packet size per connected master and slave (bytes)
system.membus.pkt_size_system.cpu5.dcache.mem_side::system.mem_ctrls.port         1664                       # Cumulative packet size per connected master and slave (bytes)
system.membus.pkt_size_system.cpu6.icache.mem_side::system.mem_ctrls.port         3328                       # Cumulative packet size per connected master and slave (bytes)
system.membus.pkt_size_system.cpu6.dcache.mem_side::system.mem_ctrls.port         1792                       # Cumulative packet size per connected master and slave (bytes)
system.membus.pkt_size_system.cpu7.icache.mem_side::system.mem_ctrls.port         3264                       # Cumulative packet size per connected master and slave (bytes)
system.membus.pkt_size_system.cpu7.dcache.mem_side::system.mem_ctrls.port         1664                       # Cumulative packet size per connected master and slave (bytes)
system.membus.pkt_size::total                  142464                       # Cumulative packet size per connected master and slave (bytes)
system.membus.snoops                             1952                       # Total snoops (count)
system.membus.snoop_fanout::samples              4193                       # Request fanout histogram
system.membus.snoop_fanout::mean                   15                       # Request fanout histogram
system.membus.snoop_fanout::stdev                   0                       # Request fanout histogram
system.membus.snoop_fanout::underflows              0      0.00%      0.00% # Request fanout histogram
system.membus.snoop_fanout::0                       0      0.00%      0.00% # Request fanout histogram
system.membus.snoop_fanout::1                       0      0.00%      0.00% # Request fanout histogram
system.membus.snoop_fanout::2                       0      0.00%      0.00% # Request fanout histogram
system.membus.snoop_fanout::3                       0      0.00%      0.00% # Request fanout histogram
system.membus.snoop_fanout::4                       0      0.00%      0.00% # Request fanout histogram
system.membus.snoop_fanout::5                       0      0.00%      0.00% # Request fanout histogram
system.membus.snoop_fanout::6                       0      0.00%      0.00% # Request fanout histogram
system.membus.snoop_fanout::7                       0      0.00%      0.00% # Request fanout histogram
system.membus.snoop_fanout::8                       0      0.00%      0.00% # Request fanout histogram
system.membus.snoop_fanout::9                       0      0.00%      0.00% # Request fanout histogram
system.membus.snoop_fanout::10                      0      0.00%      0.00% # Request fanout histogram
system.membus.snoop_fanout::11                      0      0.00%      0.00% # Request fanout histogram
system.membus.snoop_fanout::12                      0      0.00%      0.00% # Request fanout histogram
system.membus.snoop_fanout::13                      0      0.00%      0.00% # Request fanout histogram
system.membus.snoop_fanout::14                      0      0.00%      0.00% # Request fanout histogram
system.membus.snoop_fanout::15                   4193    100.00%    100.00% # Request fanout histogram
system.membus.snoop_fanout::16                      0      0.00%    100.00% # Request fanout histogram
system.membus.snoop_fanout::overflows               0      0.00%    100.00% # Request fanout histogram
system.membus.snoop_fanout::min_value              15                       # Request fanout histogram
system.membus.snoop_fanout::max_value              15                       # Request fanout histogram
system.membus.snoop_fanout::total                4193                       # Request fanout histogram
system.membus.reqLayer0.occupancy             5435993                       # Layer occupancy (ticks)
system.membus.reqLayer0.utilization               6.8                       # Layer utilization (%)
system.membus.respLayer1.occupancy            3272750                       # Layer occupancy (ticks)
system.membus.respLayer1.utilization              4.1                       # Layer utilization (%)
system.membus.respLayer2.occupancy            5136738                       # Layer occupancy (ticks)
system.membus.respLayer2.utilization              6.4                       # Layer utilization (%)
system.membus.respLayer5.occupancy             283750                       # Layer occupancy (ticks)
system.membus.respLayer5.utilization              0.4                       # Layer utilization (%)
system.membus.respLayer6.occupancy            1592887                       # Layer occupancy (ticks)
system.membus.respLayer6.utilization              2.0                       # Layer utilization (%)
system.membus.respLayer9.occupancy             281000                       # Layer occupancy (ticks)
system.membus.respLayer9.utilization              0.4                       # Layer utilization (%)
system.membus.respLayer10.occupancy           1614062                       # Layer occupancy (ticks)
system.membus.respLayer10.utilization             2.0                       # Layer utilization (%)
system.membus.respLayer13.occupancy            290750                       # Layer occupancy (ticks)
system.membus.respLayer13.utilization             0.4                       # Layer utilization (%)
system.membus.respLayer14.occupancy           1622774                       # Layer occupancy (ticks)
system.membus.respLayer14.utilization             2.0                       # Layer utilization (%)
system.membus.respLayer17.occupancy            303500                       # Layer occupancy (ticks)
system.membus.respLayer17.utilization             0.4                       # Layer utilization (%)
system.membus.respLayer18.occupancy           1654291                       # Layer occupancy (ticks)
system.membus.respLayer18.utilization             2.1                       # Layer utilization (%)
system.membus.respLayer21.occupancy            275750                       # Layer occupancy (ticks)
system.membus.respLayer21.utilization             0.3                       # Layer utilization (%)
system.membus.respLayer22.occupancy           1633311                       # Layer occupancy (ticks)
system.membus.respLayer22.utilization             2.0                       # Layer utilization (%)
system.membus.respLayer25.occupancy            278250                       # Layer occupancy (ticks)
system.membus.respLayer25.utilization             0.3                       # Layer utilization (%)
system.membus.respLayer26.occupancy           1630046                       # Layer occupancy (ticks)
system.membus.respLayer26.utilization             2.0                       # Layer utilization (%)
system.membus.respLayer29.occupancy            271750                       # Layer occupancy (ticks)
system.membus.respLayer29.utilization             0.3                       # Layer utilization (%)
system.membus.respLayer30.occupancy           1550407                       # Layer occupancy (ticks)
system.membus.respLayer30.utilization             1.9                       # Layer utilization (%)

---------- End Simulation Statistics   ----------
