
---------- Begin Simulation Statistics ----------
sim_seconds                                  0.000089                       # Number of seconds simulated
sim_ticks                                    89336000                       # Number of ticks simulated
final_tick                                   89336000                       # Number of ticks from beginning of simulation (restored from checkpoints and never reset)
sim_freq                                 1000000000000                       # Frequency of simulated ticks
host_inst_rate                                 134099                       # Simulator instruction rate (inst/s)
host_op_rate                                   136939                       # Simulator op (including micro ops) rate (op/s)
host_tick_rate                                8092720                       # Simulator tick rate (ticks/s)
host_mem_usage                                 723280                       # Number of bytes of host memory used
host_seconds                                    11.04                       # Real time elapsed on the host
sim_insts                                     1480319                       # Number of instructions simulated
sim_ops                                       1511670                       # Number of ops (including micro ops) simulated
system.voltage_domain.voltage                       1                       # Voltage in Volts
system.clk_domain.clock                          1000                       # Clock period in ticks
system.mem_ctrls.bytes_read::cpu00.inst         39040                       # Number of bytes read from this memory
system.mem_ctrls.bytes_read::cpu00.data         63232                       # Number of bytes read from this memory
system.mem_ctrls.bytes_read::cpu01.inst          3264                       # Number of bytes read from this memory
system.mem_ctrls.bytes_read::cpu01.data          1216                       # Number of bytes read from this memory
system.mem_ctrls.bytes_read::cpu02.inst          3264                       # Number of bytes read from this memory
system.mem_ctrls.bytes_read::cpu02.data          1216                       # Number of bytes read from this memory
system.mem_ctrls.bytes_read::cpu03.inst          3264                       # Number of bytes read from this memory
system.mem_ctrls.bytes_read::cpu03.data          1280                       # Number of bytes read from this memory
system.mem_ctrls.bytes_read::cpu04.inst          3264                       # Number of bytes read from this memory
system.mem_ctrls.bytes_read::cpu04.data          1216                       # Number of bytes read from this memory
system.mem_ctrls.bytes_read::cpu05.inst          3264                       # Number of bytes read from this memory
system.mem_ctrls.bytes_read::cpu05.data          1280                       # Number of bytes read from this memory
system.mem_ctrls.bytes_read::cpu06.inst          3392                       # Number of bytes read from this memory
system.mem_ctrls.bytes_read::cpu06.data          1408                       # Number of bytes read from this memory
system.mem_ctrls.bytes_read::cpu07.inst          3328                       # Number of bytes read from this memory
system.mem_ctrls.bytes_read::cpu07.data          1600                       # Number of bytes read from this memory
system.mem_ctrls.bytes_read::cpu08.inst          3392                       # Number of bytes read from this memory
system.mem_ctrls.bytes_read::cpu08.data          1600                       # Number of bytes read from this memory
system.mem_ctrls.bytes_read::cpu09.inst          3328                       # Number of bytes read from this memory
system.mem_ctrls.bytes_read::cpu09.data          1472                       # Number of bytes read from this memory
system.mem_ctrls.bytes_read::cpu10.inst          3456                       # Number of bytes read from this memory
system.mem_ctrls.bytes_read::cpu10.data          1344                       # Number of bytes read from this memory
system.mem_ctrls.bytes_read::cpu11.inst          3520                       # Number of bytes read from this memory
system.mem_ctrls.bytes_read::cpu11.data          1472                       # Number of bytes read from this memory
system.mem_ctrls.bytes_read::cpu12.inst          3392                       # Number of bytes read from this memory
system.mem_ctrls.bytes_read::cpu12.data          1408                       # Number of bytes read from this memory
system.mem_ctrls.bytes_read::cpu13.inst          3328                       # Number of bytes read from this memory
system.mem_ctrls.bytes_read::cpu13.data          1408                       # Number of bytes read from this memory
system.mem_ctrls.bytes_read::cpu14.inst          3136                       # Number of bytes read from this memory
system.mem_ctrls.bytes_read::cpu14.data          1216                       # Number of bytes read from this memory
system.mem_ctrls.bytes_read::cpu15.inst          3200                       # Number of bytes read from this memory
system.mem_ctrls.bytes_read::cpu15.data          1344                       # Number of bytes read from this memory
system.mem_ctrls.bytes_read::total             172544                       # Number of bytes read from this memory
system.mem_ctrls.bytes_inst_read::cpu00.inst        39040                       # Number of instructions bytes read from this memory
system.mem_ctrls.bytes_inst_read::cpu01.inst         3264                       # Number of instructions bytes read from this memory
system.mem_ctrls.bytes_inst_read::cpu02.inst         3264                       # Number of instructions bytes read from this memory
system.mem_ctrls.bytes_inst_read::cpu03.inst         3264                       # Number of instructions bytes read from this memory
system.mem_ctrls.bytes_inst_read::cpu04.inst         3264                       # Number of instructions bytes read from this memory
system.mem_ctrls.bytes_inst_read::cpu05.inst         3264                       # Number of instructions bytes read from this memory
system.mem_ctrls.bytes_inst_read::cpu06.inst         3392                       # Number of instructions bytes read from this memory
system.mem_ctrls.bytes_inst_read::cpu07.inst         3328                       # Number of instructions bytes read from this memory
system.mem_ctrls.bytes_inst_read::cpu08.inst         3392                       # Number of instructions bytes read from this memory
system.mem_ctrls.bytes_inst_read::cpu09.inst         3328                       # Number of instructions bytes read from this memory
system.mem_ctrls.bytes_inst_read::cpu10.inst         3456                       # Number of instructions bytes read from this memory
system.mem_ctrls.bytes_inst_read::cpu11.inst         3520                       # Number of instructions bytes read from this memory
system.mem_ctrls.bytes_inst_read::cpu12.inst         3392                       # Number of instructions bytes read from this memory
system.mem_ctrls.bytes_inst_read::cpu13.inst         3328                       # Number of instructions bytes read from this memory
system.mem_ctrls.bytes_inst_read::cpu14.inst         3136                       # Number of instructions bytes read from this memory
system.mem_ctrls.bytes_inst_read::cpu15.inst         3200                       # Number of instructions bytes read from this memory
system.mem_ctrls.bytes_inst_read::total         88832                       # Number of instructions bytes read from this memory
system.mem_ctrls.bytes_written::writebacks         6528                       # Number of bytes written to this memory
system.mem_ctrls.bytes_written::total            6528                       # Number of bytes written to this memory
system.mem_ctrls.num_reads::cpu00.inst            610                       # Number of read requests responded to by this memory
system.mem_ctrls.num_reads::cpu00.data            988                       # Number of read requests responded to by this memory
system.mem_ctrls.num_reads::cpu01.inst             51                       # Number of read requests responded to by this memory
system.mem_ctrls.num_reads::cpu01.data             19                       # Number of read requests responded to by this memory
system.mem_ctrls.num_reads::cpu02.inst             51                       # Number of read requests responded to by this memory
system.mem_ctrls.num_reads::cpu02.data             19                       # Number of read requests responded to by this memory
system.mem_ctrls.num_reads::cpu03.inst             51                       # Number of read requests responded to by this memory
system.mem_ctrls.num_reads::cpu03.data             20                       # Number of read requests responded to by this memory
system.mem_ctrls.num_reads::cpu04.inst             51                       # Number of read requests responded to by this memory
system.mem_ctrls.num_reads::cpu04.data             19                       # Number of read requests responded to by this memory
system.mem_ctrls.num_reads::cpu05.inst             51                       # Number of read requests responded to by this memory
system.mem_ctrls.num_reads::cpu05.data             20                       # Number of read requests responded to by this memory
system.mem_ctrls.num_reads::cpu06.inst             53                       # Number of read requests responded to by this memory
system.mem_ctrls.num_reads::cpu06.data             22                       # Number of read requests responded to by this memory
system.mem_ctrls.num_reads::cpu07.inst             52                       # Number of read requests responded to by this memory
system.mem_ctrls.num_reads::cpu07.data             25                       # Number of read requests responded to by this memory
system.mem_ctrls.num_reads::cpu08.inst             53                       # Number of read requests responded to by this memory
system.mem_ctrls.num_reads::cpu08.data             25                       # Number of read requests responded to by this memory
system.mem_ctrls.num_reads::cpu09.inst             52                       # Number of read requests responded to by this memory
system.mem_ctrls.num_reads::cpu09.data             23                       # Number of read requests responded to by this memory
system.mem_ctrls.num_reads::cpu10.inst             54                       # Number of read requests responded to by this memory
system.mem_ctrls.num_reads::cpu10.data             21                       # Number of read requests responded to by this memory
system.mem_ctrls.num_reads::cpu11.inst             55                       # Number of read requests responded to by this memory
system.mem_ctrls.num_reads::cpu11.data             23                       # Number of read requests responded to by this memory
system.mem_ctrls.num_reads::cpu12.inst             53                       # Number of read requests responded to by this memory
system.mem_ctrls.num_reads::cpu12.data             22                       # Number of read requests responded to by this memory
system.mem_ctrls.num_reads::cpu13.inst             52                       # Number of read requests responded to by this memory
system.mem_ctrls.num_reads::cpu13.data             22                       # Number of read requests responded to by this memory
system.mem_ctrls.num_reads::cpu14.inst             49                       # Number of read requests responded to by this memory
system.mem_ctrls.num_reads::cpu14.data             19                       # Number of read requests responded to by this memory
system.mem_ctrls.num_reads::cpu15.inst             50                       # Number of read requests responded to by this memory
system.mem_ctrls.num_reads::cpu15.data             21                       # Number of read requests responded to by this memory
system.mem_ctrls.num_reads::total                2696                       # Number of read requests responded to by this memory
system.mem_ctrls.num_writes::writebacks           102                       # Number of write requests responded to by this memory
system.mem_ctrls.num_writes::total                102                       # Number of write requests responded to by this memory
system.mem_ctrls.bw_read::cpu00.inst        437001881                       # Total read bandwidth from this memory (bytes/s)
system.mem_ctrls.bw_read::cpu00.data        707799767                       # Total read bandwidth from this memory (bytes/s)
system.mem_ctrls.bw_read::cpu01.inst         36536223                       # Total read bandwidth from this memory (bytes/s)
system.mem_ctrls.bw_read::cpu01.data         13611534                       # Total read bandwidth from this memory (bytes/s)
system.mem_ctrls.bw_read::cpu02.inst         36536223                       # Total read bandwidth from this memory (bytes/s)
system.mem_ctrls.bw_read::cpu02.data         13611534                       # Total read bandwidth from this memory (bytes/s)
system.mem_ctrls.bw_read::cpu03.inst         36536223                       # Total read bandwidth from this memory (bytes/s)
system.mem_ctrls.bw_read::cpu03.data         14327931                       # Total read bandwidth from this memory (bytes/s)
system.mem_ctrls.bw_read::cpu04.inst         36536223                       # Total read bandwidth from this memory (bytes/s)
system.mem_ctrls.bw_read::cpu04.data         13611534                       # Total read bandwidth from this memory (bytes/s)
system.mem_ctrls.bw_read::cpu05.inst         36536223                       # Total read bandwidth from this memory (bytes/s)
system.mem_ctrls.bw_read::cpu05.data         14327931                       # Total read bandwidth from this memory (bytes/s)
system.mem_ctrls.bw_read::cpu06.inst         37969016                       # Total read bandwidth from this memory (bytes/s)
system.mem_ctrls.bw_read::cpu06.data         15760724                       # Total read bandwidth from this memory (bytes/s)
system.mem_ctrls.bw_read::cpu07.inst         37252619                       # Total read bandwidth from this memory (bytes/s)
system.mem_ctrls.bw_read::cpu07.data         17909913                       # Total read bandwidth from this memory (bytes/s)
system.mem_ctrls.bw_read::cpu08.inst         37969016                       # Total read bandwidth from this memory (bytes/s)
system.mem_ctrls.bw_read::cpu08.data         17909913                       # Total read bandwidth from this memory (bytes/s)
system.mem_ctrls.bw_read::cpu09.inst         37252619                       # Total read bandwidth from this memory (bytes/s)
system.mem_ctrls.bw_read::cpu09.data         16477120                       # Total read bandwidth from this memory (bytes/s)
system.mem_ctrls.bw_read::cpu10.inst         38685412                       # Total read bandwidth from this memory (bytes/s)
system.mem_ctrls.bw_read::cpu10.data         15044327                       # Total read bandwidth from this memory (bytes/s)
system.mem_ctrls.bw_read::cpu11.inst         39401809                       # Total read bandwidth from this memory (bytes/s)
system.mem_ctrls.bw_read::cpu11.data         16477120                       # Total read bandwidth from this memory (bytes/s)
system.mem_ctrls.bw_read::cpu12.inst         37969016                       # Total read bandwidth from this memory (bytes/s)
system.mem_ctrls.bw_read::cpu12.data         15760724                       # Total read bandwidth from this memory (bytes/s)
system.mem_ctrls.bw_read::cpu13.inst         37252619                       # Total read bandwidth from this memory (bytes/s)
system.mem_ctrls.bw_read::cpu13.data         15760724                       # Total read bandwidth from this memory (bytes/s)
system.mem_ctrls.bw_read::cpu14.inst         35103430                       # Total read bandwidth from this memory (bytes/s)
system.mem_ctrls.bw_read::cpu14.data         13611534                       # Total read bandwidth from this memory (bytes/s)
system.mem_ctrls.bw_read::cpu15.inst         35819826                       # Total read bandwidth from this memory (bytes/s)
system.mem_ctrls.bw_read::cpu15.data         15044327                       # Total read bandwidth from this memory (bytes/s)
system.mem_ctrls.bw_read::total            1931405033                       # Total read bandwidth from this memory (bytes/s)
system.mem_ctrls.bw_inst_read::cpu00.inst    437001881                       # Instruction read bandwidth from this memory (bytes/s)
system.mem_ctrls.bw_inst_read::cpu01.inst     36536223                       # Instruction read bandwidth from this memory (bytes/s)
system.mem_ctrls.bw_inst_read::cpu02.inst     36536223                       # Instruction read bandwidth from this memory (bytes/s)
system.mem_ctrls.bw_inst_read::cpu03.inst     36536223                       # Instruction read bandwidth from this memory (bytes/s)
system.mem_ctrls.bw_inst_read::cpu04.inst     36536223                       # Instruction read bandwidth from this memory (bytes/s)
system.mem_ctrls.bw_inst_read::cpu05.inst     36536223                       # Instruction read bandwidth from this memory (bytes/s)
system.mem_ctrls.bw_inst_read::cpu06.inst     37969016                       # Instruction read bandwidth from this memory (bytes/s)
system.mem_ctrls.bw_inst_read::cpu07.inst     37252619                       # Instruction read bandwidth from this memory (bytes/s)
system.mem_ctrls.bw_inst_read::cpu08.inst     37969016                       # Instruction read bandwidth from this memory (bytes/s)
system.mem_ctrls.bw_inst_read::cpu09.inst     37252619                       # Instruction read bandwidth from this memory (bytes/s)
system.mem_ctrls.bw_inst_read::cpu10.inst     38685412                       # Instruction read bandwidth from this memory (bytes/s)
system.mem_ctrls.bw_inst_read::cpu11.inst     39401809                       # Instruction read bandwidth from this memory (bytes/s)
system.mem_ctrls.bw_inst_read::cpu12.inst     37969016                       # Instruction read bandwidth from this memory (bytes/s)
system.mem_ctrls.bw_inst_read::cpu13.inst     37252619                       # Instruction read bandwidth from this memory (bytes/s)
system.mem_ctrls.bw_inst_read::cpu14.inst     35103430                       # Instruction read bandwidth from this memory (bytes/s)
system.mem_ctrls.bw_inst_read::cpu15.inst     35819826                       # Instruction read bandwidth from this memory (bytes/s)
system.mem_ctrls.bw_inst_read::total        994358377                       # Instruction read bandwidth from this memory (bytes/s)
system.mem_ctrls.bw_write::writebacks        73072446                       # Write bandwidth from this memory (bytes/s)
system.mem_ctrls.bw_write::total             73072446                       # Write bandwidth from this memory (bytes/s)
system.mem_ctrls.bw_total::writebacks        73072446                       # Total bandwidth to/from this memory (bytes/s)
system.mem_ctrls.bw_total::cpu00.inst       437001881                       # Total bandwidth to/from this memory (bytes/s)
system.mem_ctrls.bw_total::cpu00.data       707799767                       # Total bandwidth to/from this memory (bytes/s)
system.mem_ctrls.bw_total::cpu01.inst        36536223                       # Total bandwidth to/from this memory (bytes/s)
system.mem_ctrls.bw_total::cpu01.data        13611534                       # Total bandwidth to/from this memory (bytes/s)
system.mem_ctrls.bw_total::cpu02.inst        36536223                       # Total bandwidth to/from this memory (bytes/s)
system.mem_ctrls.bw_total::cpu02.data        13611534                       # Total bandwidth to/from this memory (bytes/s)
system.mem_ctrls.bw_total::cpu03.inst        36536223                       # Total bandwidth to/from this memory (bytes/s)
system.mem_ctrls.bw_total::cpu03.data        14327931                       # Total bandwidth to/from this memory (bytes/s)
system.mem_ctrls.bw_total::cpu04.inst        36536223                       # Total bandwidth to/from this memory (bytes/s)
system.mem_ctrls.bw_total::cpu04.data        13611534                       # Total bandwidth to/from this memory (bytes/s)
system.mem_ctrls.bw_total::cpu05.inst        36536223                       # Total bandwidth to/from this memory (bytes/s)
system.mem_ctrls.bw_total::cpu05.data        14327931                       # Total bandwidth to/from this memory (bytes/s)
system.mem_ctrls.bw_total::cpu06.inst        37969016                       # Total bandwidth to/from this memory (bytes/s)
system.mem_ctrls.bw_total::cpu06.data        15760724                       # Total bandwidth to/from this memory (bytes/s)
system.mem_ctrls.bw_total::cpu07.inst        37252619                       # Total bandwidth to/from this memory (bytes/s)
system.mem_ctrls.bw_total::cpu07.data        17909913                       # Total bandwidth to/from this memory (bytes/s)
system.mem_ctrls.bw_total::cpu08.inst        37969016                       # Total bandwidth to/from this memory (bytes/s)
system.mem_ctrls.bw_total::cpu08.data        17909913                       # Total bandwidth to/from this memory (bytes/s)
system.mem_ctrls.bw_total::cpu09.inst        37252619                       # Total bandwidth to/from this memory (bytes/s)
system.mem_ctrls.bw_total::cpu09.data        16477120                       # Total bandwidth to/from this memory (bytes/s)
system.mem_ctrls.bw_total::cpu10.inst        38685412                       # Total bandwidth to/from this memory (bytes/s)
system.mem_ctrls.bw_total::cpu10.data        15044327                       # Total bandwidth to/from this memory (bytes/s)
system.mem_ctrls.bw_total::cpu11.inst        39401809                       # Total bandwidth to/from this memory (bytes/s)
system.mem_ctrls.bw_total::cpu11.data        16477120                       # Total bandwidth to/from this memory (bytes/s)
system.mem_ctrls.bw_total::cpu12.inst        37969016                       # Total bandwidth to/from this memory (bytes/s)
system.mem_ctrls.bw_total::cpu12.data        15760724                       # Total bandwidth to/from this memory (bytes/s)
system.mem_ctrls.bw_total::cpu13.inst        37252619                       # Total bandwidth to/from this memory (bytes/s)
system.mem_ctrls.bw_total::cpu13.data        15760724                       # Total bandwidth to/from this memory (bytes/s)
system.mem_ctrls.bw_total::cpu14.inst        35103430                       # Total bandwidth to/from this memory (bytes/s)
system.mem_ctrls.bw_total::cpu14.data        13611534                       # Total bandwidth to/from this memory (bytes/s)
system.mem_ctrls.bw_total::cpu15.inst        35819826                       # Total bandwidth to/from this memory (bytes/s)
system.mem_ctrls.bw_total::cpu15.data        15044327                       # Total bandwidth to/from this memory (bytes/s)
system.mem_ctrls.bw_total::total           2004477478                       # Total bandwidth to/from this memory (bytes/s)
system.mem_ctrls.readReqs                        2697                       # Number of read requests accepted
system.mem_ctrls.writeReqs                        102                       # Number of write requests accepted
system.mem_ctrls.readBursts                      2697                       # Number of DRAM read bursts, including those serviced by the write queue
system.mem_ctrls.writeBursts                      102                       # Number of DRAM write bursts, including those merged in the write queue
system.mem_ctrls.bytesReadDRAM                 168448                       # Total number of bytes read from DRAM
system.mem_ctrls.bytesReadWrQ                    4160                       # Total number of bytes read from write queue
system.mem_ctrls.bytesWritten                    4352                       # Total number of bytes written to DRAM
system.mem_ctrls.bytesReadSys                  172608                       # Total read bytes from the system interface side
system.mem_ctrls.bytesWrittenSys                 6528                       # Total written bytes from the system interface side
system.mem_ctrls.servicedByWrQ                     65                       # Number of DRAM read bursts serviced by the write queue
system.mem_ctrls.mergedWrBursts                     2                       # Number of DRAM write bursts merged with an existing one
system.mem_ctrls.neitherReadNorWriteReqs           16                       # Number of requests that are neither read nor write
system.mem_ctrls.perBankRdBursts::0               267                       # Per bank write bursts
system.mem_ctrls.perBankRdBursts::1               601                       # Per bank write bursts
system.mem_ctrls.perBankRdBursts::2               311                       # Per bank write bursts
system.mem_ctrls.perBankRdBursts::3               311                       # Per bank write bursts
system.mem_ctrls.perBankRdBursts::4               211                       # Per bank write bursts
system.mem_ctrls.perBankRdBursts::5               210                       # Per bank write bursts
system.mem_ctrls.perBankRdBursts::6               277                       # Per bank write bursts
system.mem_ctrls.perBankRdBursts::7               171                       # Per bank write bursts
system.mem_ctrls.perBankRdBursts::8                28                       # Per bank write bursts
system.mem_ctrls.perBankRdBursts::9                10                       # Per bank write bursts
system.mem_ctrls.perBankRdBursts::10                0                       # Per bank write bursts
system.mem_ctrls.perBankRdBursts::11               14                       # Per bank write bursts
system.mem_ctrls.perBankRdBursts::12                9                       # Per bank write bursts
system.mem_ctrls.perBankRdBursts::13               38                       # Per bank write bursts
system.mem_ctrls.perBankRdBursts::14               40                       # Per bank write bursts
system.mem_ctrls.perBankRdBursts::15              134                       # Per bank write bursts
system.mem_ctrls.perBankWrBursts::0                 1                       # Per bank write bursts
system.mem_ctrls.perBankWrBursts::1                 0                       # Per bank write bursts
system.mem_ctrls.perBankWrBursts::2                 4                       # Per bank write bursts
system.mem_ctrls.perBankWrBursts::3                20                       # Per bank write bursts
system.mem_ctrls.perBankWrBursts::4                 1                       # Per bank write bursts
system.mem_ctrls.perBankWrBursts::5                 0                       # Per bank write bursts
system.mem_ctrls.perBankWrBursts::6                 0                       # Per bank write bursts
system.mem_ctrls.perBankWrBursts::7                15                       # Per bank write bursts
system.mem_ctrls.perBankWrBursts::8                 0                       # Per bank write bursts
system.mem_ctrls.perBankWrBursts::9                 0                       # Per bank write bursts
system.mem_ctrls.perBankWrBursts::10                0                       # Per bank write bursts
system.mem_ctrls.perBankWrBursts::11                0                       # Per bank write bursts
system.mem_ctrls.perBankWrBursts::12                0                       # Per bank write bursts
system.mem_ctrls.perBankWrBursts::13                0                       # Per bank write bursts
system.mem_ctrls.perBankWrBursts::14                0                       # Per bank write bursts
system.mem_ctrls.perBankWrBursts::15               27                       # Per bank write bursts
system.mem_ctrls.numRdRetry                        25                       # Number of times read queue was full causing retry
system.mem_ctrls.numWrRetry                         0                       # Number of times write queue was full causing retry
system.mem_ctrls.totGap                      89327500                       # Total gap between requests
system.mem_ctrls.readPktSize::0                     0                       # Read request sizes (log2)
system.mem_ctrls.readPktSize::1                     0                       # Read request sizes (log2)
system.mem_ctrls.readPktSize::2                     0                       # Read request sizes (log2)
system.mem_ctrls.readPktSize::3                     0                       # Read request sizes (log2)
system.mem_ctrls.readPktSize::4                     0                       # Read request sizes (log2)
system.mem_ctrls.readPktSize::5                     0                       # Read request sizes (log2)
system.mem_ctrls.readPktSize::6                  2697                       # Read request sizes (log2)
system.mem_ctrls.writePktSize::0                    0                       # Write request sizes (log2)
system.mem_ctrls.writePktSize::1                    0                       # Write request sizes (log2)
system.mem_ctrls.writePktSize::2                    0                       # Write request sizes (log2)
system.mem_ctrls.writePktSize::3                    0                       # Write request sizes (log2)
system.mem_ctrls.writePktSize::4                    0                       # Write request sizes (log2)
system.mem_ctrls.writePktSize::5                    0                       # Write request sizes (log2)
system.mem_ctrls.writePktSize::6                  102                       # Write request sizes (log2)
system.mem_ctrls.rdQLenPdf::0                     880                       # What read queue length does an incoming req see
system.mem_ctrls.rdQLenPdf::1                     602                       # What read queue length does an incoming req see
system.mem_ctrls.rdQLenPdf::2                     125                       # What read queue length does an incoming req see
system.mem_ctrls.rdQLenPdf::3                      62                       # What read queue length does an incoming req see
system.mem_ctrls.rdQLenPdf::4                      59                       # What read queue length does an incoming req see
system.mem_ctrls.rdQLenPdf::5                      49                       # What read queue length does an incoming req see
system.mem_ctrls.rdQLenPdf::6                      54                       # What read queue length does an incoming req see
system.mem_ctrls.rdQLenPdf::7                      75                       # What read queue length does an incoming req see
system.mem_ctrls.rdQLenPdf::8                      75                       # What read queue length does an incoming req see
system.mem_ctrls.rdQLenPdf::9                      77                       # What read queue length does an incoming req see
system.mem_ctrls.rdQLenPdf::10                     64                       # What read queue length does an incoming req see
system.mem_ctrls.rdQLenPdf::11                     69                       # What read queue length does an incoming req see
system.mem_ctrls.rdQLenPdf::12                     58                       # What read queue length does an incoming req see
system.mem_ctrls.rdQLenPdf::13                     40                       # What read queue length does an incoming req see
system.mem_ctrls.rdQLenPdf::14                     34                       # What read queue length does an incoming req see
system.mem_ctrls.rdQLenPdf::15                     30                       # What read queue length does an incoming req see
system.mem_ctrls.rdQLenPdf::16                     23                       # What read queue length does an incoming req see
system.mem_ctrls.rdQLenPdf::17                     20                       # What read queue length does an incoming req see
system.mem_ctrls.rdQLenPdf::18                      9                       # What read queue length does an incoming req see
system.mem_ctrls.rdQLenPdf::19                      7                       # What read queue length does an incoming req see
system.mem_ctrls.rdQLenPdf::20                      5                       # What read queue length does an incoming req see
system.mem_ctrls.rdQLenPdf::21                     12                       # What read queue length does an incoming req see
system.mem_ctrls.rdQLenPdf::22                      8                       # What read queue length does an incoming req see
system.mem_ctrls.rdQLenPdf::23                     14                       # What read queue length does an incoming req see
system.mem_ctrls.rdQLenPdf::24                     21                       # What read queue length does an incoming req see
system.mem_ctrls.rdQLenPdf::25                     39                       # What read queue length does an incoming req see
system.mem_ctrls.rdQLenPdf::26                     22                       # What read queue length does an incoming req see
system.mem_ctrls.rdQLenPdf::27                     23                       # What read queue length does an incoming req see
system.mem_ctrls.rdQLenPdf::28                     13                       # What read queue length does an incoming req see
system.mem_ctrls.rdQLenPdf::29                      8                       # What read queue length does an incoming req see
system.mem_ctrls.rdQLenPdf::30                     14                       # What read queue length does an incoming req see
system.mem_ctrls.rdQLenPdf::31                     41                       # What read queue length does an incoming req see
system.mem_ctrls.wrQLenPdf::0                       1                       # What write queue length does an incoming req see
system.mem_ctrls.wrQLenPdf::1                       1                       # What write queue length does an incoming req see
system.mem_ctrls.wrQLenPdf::2                       1                       # What write queue length does an incoming req see
system.mem_ctrls.wrQLenPdf::3                       1                       # What write queue length does an incoming req see
system.mem_ctrls.wrQLenPdf::4                       1                       # What write queue length does an incoming req see
system.mem_ctrls.wrQLenPdf::5                       1                       # What write queue length does an incoming req see
system.mem_ctrls.wrQLenPdf::6                       1                       # What write queue length does an incoming req see
system.mem_ctrls.wrQLenPdf::7                       1                       # What write queue length does an incoming req see
system.mem_ctrls.wrQLenPdf::8                       1                       # What write queue length does an incoming req see
system.mem_ctrls.wrQLenPdf::9                       1                       # What write queue length does an incoming req see
system.mem_ctrls.wrQLenPdf::10                      1                       # What write queue length does an incoming req see
system.mem_ctrls.wrQLenPdf::11                      1                       # What write queue length does an incoming req see
system.mem_ctrls.wrQLenPdf::12                      1                       # What write queue length does an incoming req see
system.mem_ctrls.wrQLenPdf::13                      1                       # What write queue length does an incoming req see
system.mem_ctrls.wrQLenPdf::14                      1                       # What write queue length does an incoming req see
system.mem_ctrls.wrQLenPdf::15                      2                       # What write queue length does an incoming req see
system.mem_ctrls.wrQLenPdf::16                      3                       # What write queue length does an incoming req see
system.mem_ctrls.wrQLenPdf::17                      3                       # What write queue length does an incoming req see
system.mem_ctrls.wrQLenPdf::18                      5                       # What write queue length does an incoming req see
system.mem_ctrls.wrQLenPdf::19                      5                       # What write queue length does an incoming req see
system.mem_ctrls.wrQLenPdf::20                      5                       # What write queue length does an incoming req see
system.mem_ctrls.wrQLenPdf::21                      5                       # What write queue length does an incoming req see
system.mem_ctrls.wrQLenPdf::22                      5                       # What write queue length does an incoming req see
system.mem_ctrls.wrQLenPdf::23                      5                       # What write queue length does an incoming req see
system.mem_ctrls.wrQLenPdf::24                      5                       # What write queue length does an incoming req see
system.mem_ctrls.wrQLenPdf::25                      5                       # What write queue length does an incoming req see
system.mem_ctrls.wrQLenPdf::26                      5                       # What write queue length does an incoming req see
system.mem_ctrls.wrQLenPdf::27                      5                       # What write queue length does an incoming req see
system.mem_ctrls.wrQLenPdf::28                      5                       # What write queue length does an incoming req see
system.mem_ctrls.wrQLenPdf::29                      6                       # What write queue length does an incoming req see
system.mem_ctrls.wrQLenPdf::30                      5                       # What write queue length does an incoming req see
system.mem_ctrls.wrQLenPdf::31                      5                       # What write queue length does an incoming req see
system.mem_ctrls.wrQLenPdf::32                      4                       # What write queue length does an incoming req see
system.mem_ctrls.wrQLenPdf::33                      1                       # What write queue length does an incoming req see
system.mem_ctrls.wrQLenPdf::34                      1                       # What write queue length does an incoming req see
system.mem_ctrls.wrQLenPdf::35                      0                       # What write queue length does an incoming req see
system.mem_ctrls.wrQLenPdf::36                      0                       # What write queue length does an incoming req see
system.mem_ctrls.wrQLenPdf::37                      0                       # What write queue length does an incoming req see
system.mem_ctrls.wrQLenPdf::38                      0                       # What write queue length does an incoming req see
system.mem_ctrls.wrQLenPdf::39                      0                       # What write queue length does an incoming req see
system.mem_ctrls.wrQLenPdf::40                      0                       # What write queue length does an incoming req see
system.mem_ctrls.wrQLenPdf::41                      0                       # What write queue length does an incoming req see
system.mem_ctrls.wrQLenPdf::42                      0                       # What write queue length does an incoming req see
system.mem_ctrls.wrQLenPdf::43                      0                       # What write queue length does an incoming req see
system.mem_ctrls.wrQLenPdf::44                      0                       # What write queue length does an incoming req see
system.mem_ctrls.wrQLenPdf::45                      0                       # What write queue length does an incoming req see
system.mem_ctrls.wrQLenPdf::46                      0                       # What write queue length does an incoming req see
system.mem_ctrls.wrQLenPdf::47                      0                       # What write queue length does an incoming req see
system.mem_ctrls.wrQLenPdf::48                      0                       # What write queue length does an incoming req see
system.mem_ctrls.wrQLenPdf::49                      0                       # What write queue length does an incoming req see
system.mem_ctrls.wrQLenPdf::50                      0                       # What write queue length does an incoming req see
system.mem_ctrls.wrQLenPdf::51                      0                       # What write queue length does an incoming req see
system.mem_ctrls.wrQLenPdf::52                      0                       # What write queue length does an incoming req see
system.mem_ctrls.wrQLenPdf::53                      0                       # What write queue length does an incoming req see
system.mem_ctrls.wrQLenPdf::54                      0                       # What write queue length does an incoming req see
system.mem_ctrls.wrQLenPdf::55                      0                       # What write queue length does an incoming req see
system.mem_ctrls.wrQLenPdf::56                      0                       # What write queue length does an incoming req see
system.mem_ctrls.wrQLenPdf::57                      0                       # What write queue length does an incoming req see
system.mem_ctrls.wrQLenPdf::58                      0                       # What write queue length does an incoming req see
system.mem_ctrls.wrQLenPdf::59                      0                       # What write queue length does an incoming req see
system.mem_ctrls.wrQLenPdf::60                      0                       # What write queue length does an incoming req see
system.mem_ctrls.wrQLenPdf::61                      0                       # What write queue length does an incoming req see
system.mem_ctrls.wrQLenPdf::62                      0                       # What write queue length does an incoming req see
system.mem_ctrls.wrQLenPdf::63                      0                       # What write queue length does an incoming req see
system.mem_ctrls.bytesPerActivate::samples          463                       # Bytes accessed per row activation
system.mem_ctrls.bytesPerActivate::mean    367.412527                       # Bytes accessed per row activation
system.mem_ctrls.bytesPerActivate::gmean   199.266069                       # Bytes accessed per row activation
system.mem_ctrls.bytesPerActivate::stdev   383.293994                       # Bytes accessed per row activation
system.mem_ctrls.bytesPerActivate::0-127          187     40.39%     40.39% # Bytes accessed per row activation
system.mem_ctrls.bytesPerActivate::128-255           83     17.93%     58.32% # Bytes accessed per row activation
system.mem_ctrls.bytesPerActivate::256-383           36      7.78%     66.09% # Bytes accessed per row activation
system.mem_ctrls.bytesPerActivate::384-511           20      4.32%     70.41% # Bytes accessed per row activation
system.mem_ctrls.bytesPerActivate::512-639           13      2.81%     73.22% # Bytes accessed per row activation
system.mem_ctrls.bytesPerActivate::640-767           12      2.59%     75.81% # Bytes accessed per row activation
system.mem_ctrls.bytesPerActivate::768-895           10      2.16%     77.97% # Bytes accessed per row activation
system.mem_ctrls.bytesPerActivate::896-1023            7      1.51%     79.48% # Bytes accessed per row activation
system.mem_ctrls.bytesPerActivate::1024-1151           95     20.52%    100.00% # Bytes accessed per row activation
system.mem_ctrls.bytesPerActivate::total          463                       # Bytes accessed per row activation
system.mem_ctrls.rdPerTurnAround::samples            4                       # Reads before turning the bus around for writes
system.mem_ctrls.rdPerTurnAround::mean     410.750000                       # Reads before turning the bus around for writes
system.mem_ctrls.rdPerTurnAround::gmean    175.206321                       # Reads before turning the bus around for writes
system.mem_ctrls.rdPerTurnAround::stdev    557.389376                       # Reads before turning the bus around for writes
system.mem_ctrls.rdPerTurnAround::0-63              2     50.00%     50.00% # Reads before turning the bus around for writes
system.mem_ctrls.rdPerTurnAround::256-319            1     25.00%     75.00% # Reads before turning the bus around for writes
system.mem_ctrls.rdPerTurnAround::1216-1279            1     25.00%    100.00% # Reads before turning the bus around for writes
system.mem_ctrls.rdPerTurnAround::total             4                       # Reads before turning the bus around for writes
system.mem_ctrls.wrPerTurnAround::samples            4                       # Writes before turning the bus around for reads
system.mem_ctrls.wrPerTurnAround::mean             17                       # Writes before turning the bus around for reads
system.mem_ctrls.wrPerTurnAround::gmean     16.917940                       # Writes before turning the bus around for reads
system.mem_ctrls.wrPerTurnAround::stdev             2                       # Writes before turning the bus around for reads
system.mem_ctrls.wrPerTurnAround::16                3     75.00%     75.00% # Writes before turning the bus around for reads
system.mem_ctrls.wrPerTurnAround::20                1     25.00%    100.00% # Writes before turning the bus around for reads
system.mem_ctrls.wrPerTurnAround::total             4                       # Writes before turning the bus around for reads
system.mem_ctrls.totQLat                     91486000                       # Total ticks spent queuing
system.mem_ctrls.totMemAccLat               140836000                       # Total ticks spent from burst creation until serviced by the DRAM
system.mem_ctrls.totBusLat                   13160000                       # Total ticks spent in databus transfers
system.mem_ctrls.avgQLat                     34759.12                       # Average queueing delay per DRAM burst
system.mem_ctrls.avgBusLat                    5000.00                       # Average bus latency per DRAM burst
system.mem_ctrls.avgMemAccLat                53509.12                       # Average memory access latency per DRAM burst
system.mem_ctrls.avgRdBW                      1885.56                       # Average DRAM read bandwidth in MiByte/s
system.mem_ctrls.avgWrBW                        48.71                       # Average achieved write bandwidth in MiByte/s
system.mem_ctrls.avgRdBWSys                   1932.12                       # Average system read bandwidth in MiByte/s
system.mem_ctrls.avgWrBWSys                     73.07                       # Average system write bandwidth in MiByte/s
system.mem_ctrls.peakBW                      12800.00                       # Theoretical peak bandwidth in MiByte/s
system.mem_ctrls.busUtil                        15.11                       # Data bus utilization in percentage
system.mem_ctrls.busUtilRead                    14.73                       # Data bus utilization in percentage for reads
system.mem_ctrls.busUtilWrite                    0.38                       # Data bus utilization in percentage for writes
system.mem_ctrls.avgRdQLen                       2.68                       # Average read queue length when enqueuing
system.mem_ctrls.avgWrQLen                      15.74                       # Average write queue length when enqueuing
system.mem_ctrls.readRowHits                     2168                       # Number of row buffer hits during reads
system.mem_ctrls.writeRowHits                      58                       # Number of row buffer hits during writes
system.mem_ctrls.readRowHitRate                 82.37                       # Row buffer hit rate for reads
system.mem_ctrls.writeRowHitRate                58.00                       # Row buffer hit rate for writes
system.mem_ctrls.avgGap                      31914.08                       # Average gap between requests
system.mem_ctrls.pageHitRate                    81.48                       # Row buffer hit rate, read and write combined
system.mem_ctrls_0.actEnergy                  3046680                       # Energy for activate commands per rank (pJ)
system.mem_ctrls_0.preEnergy                  1662375                       # Energy for precharge commands per rank (pJ)
system.mem_ctrls_0.readEnergy                17877600                       # Energy for read commands per rank (pJ)
system.mem_ctrls_0.writeEnergy                 265680                       # Energy for write commands per rank (pJ)
system.mem_ctrls_0.refreshEnergy              5594160                       # Energy for refresh commands per rank (pJ)
system.mem_ctrls_0.actBackEnergy             57083220                       # Energy for active background per rank (pJ)
system.mem_ctrls_0.preBackEnergy              1472250                       # Energy for precharge background per rank (pJ)
system.mem_ctrls_0.totalEnergy               87001965                       # Total energy per rank (pJ)
system.mem_ctrls_0.averagePower           1012.725304                       # Core power per rank (mW)
system.mem_ctrls_0.memoryStateTime::IDLE      1876250                       # Time in different power states
system.mem_ctrls_0.memoryStateTime::REF       2860000                       # Time in different power states
system.mem_ctrls_0.memoryStateTime::PRE_PDN            0                       # Time in different power states
system.mem_ctrls_0.memoryStateTime::ACT      81186250                       # Time in different power states
system.mem_ctrls_0.memoryStateTime::ACT_PDN            0                       # Time in different power states
system.mem_ctrls_1.actEnergy                   332640                       # Energy for activate commands per rank (pJ)
system.mem_ctrls_1.preEnergy                   181500                       # Energy for precharge commands per rank (pJ)
system.mem_ctrls_1.readEnergy                 1770600                       # Energy for read commands per rank (pJ)
system.mem_ctrls_1.writeEnergy                 174960                       # Energy for write commands per rank (pJ)
system.mem_ctrls_1.refreshEnergy              5594160                       # Energy for refresh commands per rank (pJ)
system.mem_ctrls_1.actBackEnergy             41452110                       # Energy for active background per rank (pJ)
system.mem_ctrls_1.preBackEnergy             15183750                       # Energy for precharge background per rank (pJ)
system.mem_ctrls_1.totalEnergy               64689720                       # Total energy per rank (pJ)
system.mem_ctrls_1.averagePower            753.005020                       # Core power per rank (mW)
system.mem_ctrls_1.memoryStateTime::IDLE     25542500                       # Time in different power states
system.mem_ctrls_1.memoryStateTime::REF       2860000                       # Time in different power states
system.mem_ctrls_1.memoryStateTime::PRE_PDN            0                       # Time in different power states
system.mem_ctrls_1.memoryStateTime::ACT      58063500                       # Time in different power states
system.mem_ctrls_1.memoryStateTime::ACT_PDN            0                       # Time in different power states
system.cpu00.branchPred.lookups                 21793                       # Number of BP lookups
system.cpu00.branchPred.condPredicted           19153                       # Number of conditional branches predicted
system.cpu00.branchPred.condIncorrect            1154                       # Number of conditional branches incorrect
system.cpu00.branchPred.BTBLookups              18425                       # Number of BTB lookups
system.cpu00.branchPred.BTBHits                 14842                       # Number of BTB hits
system.cpu00.branchPred.BTBCorrect                  0                       # Number of correct BTB predictions (this stat may not work properly.
system.cpu00.branchPred.BTBHitPct           80.553596                       # BTB Hit Percentage
system.cpu00.branchPred.usedRAS                  1025                       # Number of times the RAS was used to get a target.
system.cpu00.branchPred.RASInCorrect               16                       # Number of incorrect RAS predictions.
system.cpu_voltage_domain.voltage                   1                       # Voltage in Volts
system.cpu_clk_domain.clock                       500                       # Clock period in ticks
system.cpu00.dstage2_mmu.stage2_tlb.walker.walks            0                       # Table walker walks requested
system.cpu00.dstage2_mmu.stage2_tlb.walker.walkRequestOrigin_Requested::Data            0                       # Table walker requests started/completed, data/inst
system.cpu00.dstage2_mmu.stage2_tlb.walker.walkRequestOrigin_Requested::Inst            0                       # Table walker requests started/completed, data/inst
system.cpu00.dstage2_mmu.stage2_tlb.walker.walkRequestOrigin_Requested::total            0                       # Table walker requests started/completed, data/inst
system.cpu00.dstage2_mmu.stage2_tlb.walker.walkRequestOrigin_Completed::Data            0                       # Table walker requests started/completed, data/inst
system.cpu00.dstage2_mmu.stage2_tlb.walker.walkRequestOrigin_Completed::Inst            0                       # Table walker requests started/completed, data/inst
system.cpu00.dstage2_mmu.stage2_tlb.walker.walkRequestOrigin_Completed::total            0                       # Table walker requests started/completed, data/inst
system.cpu00.dstage2_mmu.stage2_tlb.walker.walkRequestOrigin::total            0                       # Table walker requests started/completed, data/inst
system.cpu00.dstage2_mmu.stage2_tlb.inst_hits            0                       # ITB inst hits
system.cpu00.dstage2_mmu.stage2_tlb.inst_misses            0                       # ITB inst misses
system.cpu00.dstage2_mmu.stage2_tlb.read_hits            0                       # DTB read hits
system.cpu00.dstage2_mmu.stage2_tlb.read_misses            0                       # DTB read misses
system.cpu00.dstage2_mmu.stage2_tlb.write_hits            0                       # DTB write hits
system.cpu00.dstage2_mmu.stage2_tlb.write_misses            0                       # DTB write misses
system.cpu00.dstage2_mmu.stage2_tlb.flush_tlb            0                       # Number of times complete TLB was flushed
system.cpu00.dstage2_mmu.stage2_tlb.flush_tlb_mva            0                       # Number of times TLB was flushed by MVA
system.cpu00.dstage2_mmu.stage2_tlb.flush_tlb_mva_asid            0                       # Number of times TLB was flushed by MVA & ASID
system.cpu00.dstage2_mmu.stage2_tlb.flush_tlb_asid            0                       # Number of times TLB was flushed by ASID
system.cpu00.dstage2_mmu.stage2_tlb.flush_entries            0                       # Number of entries that have been flushed from TLB
system.cpu00.dstage2_mmu.stage2_tlb.align_faults            0                       # Number of TLB faults due to alignment restrictions
system.cpu00.dstage2_mmu.stage2_tlb.prefetch_faults            0                       # Number of TLB faults due to prefetch
system.cpu00.dstage2_mmu.stage2_tlb.domain_faults            0                       # Number of TLB faults due to domain restrictions
system.cpu00.dstage2_mmu.stage2_tlb.perms_faults            0                       # Number of TLB faults due to permissions restrictions
system.cpu00.dstage2_mmu.stage2_tlb.read_accesses            0                       # DTB read accesses
system.cpu00.dstage2_mmu.stage2_tlb.write_accesses            0                       # DTB write accesses
system.cpu00.dstage2_mmu.stage2_tlb.inst_accesses            0                       # ITB inst accesses
system.cpu00.dstage2_mmu.stage2_tlb.hits            0                       # DTB hits
system.cpu00.dstage2_mmu.stage2_tlb.misses            0                       # DTB misses
system.cpu00.dstage2_mmu.stage2_tlb.accesses            0                       # DTB accesses
system.cpu00.dtb.walker.walks                       0                       # Table walker walks requested
system.cpu00.dtb.walker.walkRequestOrigin_Requested::Data            0                       # Table walker requests started/completed, data/inst
system.cpu00.dtb.walker.walkRequestOrigin_Requested::Inst            0                       # Table walker requests started/completed, data/inst
system.cpu00.dtb.walker.walkRequestOrigin_Requested::total            0                       # Table walker requests started/completed, data/inst
system.cpu00.dtb.walker.walkRequestOrigin_Completed::Data            0                       # Table walker requests started/completed, data/inst
system.cpu00.dtb.walker.walkRequestOrigin_Completed::Inst            0                       # Table walker requests started/completed, data/inst
system.cpu00.dtb.walker.walkRequestOrigin_Completed::total            0                       # Table walker requests started/completed, data/inst
system.cpu00.dtb.walker.walkRequestOrigin::total            0                       # Table walker requests started/completed, data/inst
system.cpu00.dtb.inst_hits                          0                       # ITB inst hits
system.cpu00.dtb.inst_misses                        0                       # ITB inst misses
system.cpu00.dtb.read_hits                          0                       # DTB read hits
system.cpu00.dtb.read_misses                        0                       # DTB read misses
system.cpu00.dtb.write_hits                         0                       # DTB write hits
system.cpu00.dtb.write_misses                       0                       # DTB write misses
system.cpu00.dtb.flush_tlb                          0                       # Number of times complete TLB was flushed
system.cpu00.dtb.flush_tlb_mva                      0                       # Number of times TLB was flushed by MVA
system.cpu00.dtb.flush_tlb_mva_asid                 0                       # Number of times TLB was flushed by MVA & ASID
system.cpu00.dtb.flush_tlb_asid                     0                       # Number of times TLB was flushed by ASID
system.cpu00.dtb.flush_entries                      0                       # Number of entries that have been flushed from TLB
system.cpu00.dtb.align_faults                       0                       # Number of TLB faults due to alignment restrictions
system.cpu00.dtb.prefetch_faults                    0                       # Number of TLB faults due to prefetch
system.cpu00.dtb.domain_faults                      0                       # Number of TLB faults due to domain restrictions
system.cpu00.dtb.perms_faults                       0                       # Number of TLB faults due to permissions restrictions
system.cpu00.dtb.read_accesses                      0                       # DTB read accesses
system.cpu00.dtb.write_accesses                     0                       # DTB write accesses
system.cpu00.dtb.inst_accesses                      0                       # ITB inst accesses
system.cpu00.dtb.hits                               0                       # DTB hits
system.cpu00.dtb.misses                             0                       # DTB misses
system.cpu00.dtb.accesses                           0                       # DTB accesses
system.cpu00.istage2_mmu.stage2_tlb.walker.walks            0                       # Table walker walks requested
system.cpu00.istage2_mmu.stage2_tlb.walker.walkRequestOrigin_Requested::Data            0                       # Table walker requests started/completed, data/inst
system.cpu00.istage2_mmu.stage2_tlb.walker.walkRequestOrigin_Requested::Inst            0                       # Table walker requests started/completed, data/inst
system.cpu00.istage2_mmu.stage2_tlb.walker.walkRequestOrigin_Requested::total            0                       # Table walker requests started/completed, data/inst
system.cpu00.istage2_mmu.stage2_tlb.walker.walkRequestOrigin_Completed::Data            0                       # Table walker requests started/completed, data/inst
system.cpu00.istage2_mmu.stage2_tlb.walker.walkRequestOrigin_Completed::Inst            0                       # Table walker requests started/completed, data/inst
system.cpu00.istage2_mmu.stage2_tlb.walker.walkRequestOrigin_Completed::total            0                       # Table walker requests started/completed, data/inst
system.cpu00.istage2_mmu.stage2_tlb.walker.walkRequestOrigin::total            0                       # Table walker requests started/completed, data/inst
system.cpu00.istage2_mmu.stage2_tlb.inst_hits            0                       # ITB inst hits
system.cpu00.istage2_mmu.stage2_tlb.inst_misses            0                       # ITB inst misses
system.cpu00.istage2_mmu.stage2_tlb.read_hits            0                       # DTB read hits
system.cpu00.istage2_mmu.stage2_tlb.read_misses            0                       # DTB read misses
system.cpu00.istage2_mmu.stage2_tlb.write_hits            0                       # DTB write hits
system.cpu00.istage2_mmu.stage2_tlb.write_misses            0                       # DTB write misses
system.cpu00.istage2_mmu.stage2_tlb.flush_tlb            0                       # Number of times complete TLB was flushed
system.cpu00.istage2_mmu.stage2_tlb.flush_tlb_mva            0                       # Number of times TLB was flushed by MVA
system.cpu00.istage2_mmu.stage2_tlb.flush_tlb_mva_asid            0                       # Number of times TLB was flushed by MVA & ASID
system.cpu00.istage2_mmu.stage2_tlb.flush_tlb_asid            0                       # Number of times TLB was flushed by ASID
system.cpu00.istage2_mmu.stage2_tlb.flush_entries            0                       # Number of entries that have been flushed from TLB
system.cpu00.istage2_mmu.stage2_tlb.align_faults            0                       # Number of TLB faults due to alignment restrictions
system.cpu00.istage2_mmu.stage2_tlb.prefetch_faults            0                       # Number of TLB faults due to prefetch
system.cpu00.istage2_mmu.stage2_tlb.domain_faults            0                       # Number of TLB faults due to domain restrictions
system.cpu00.istage2_mmu.stage2_tlb.perms_faults            0                       # Number of TLB faults due to permissions restrictions
system.cpu00.istage2_mmu.stage2_tlb.read_accesses            0                       # DTB read accesses
system.cpu00.istage2_mmu.stage2_tlb.write_accesses            0                       # DTB write accesses
system.cpu00.istage2_mmu.stage2_tlb.inst_accesses            0                       # ITB inst accesses
system.cpu00.istage2_mmu.stage2_tlb.hits            0                       # DTB hits
system.cpu00.istage2_mmu.stage2_tlb.misses            0                       # DTB misses
system.cpu00.istage2_mmu.stage2_tlb.accesses            0                       # DTB accesses
system.cpu00.itb.walker.walks                       0                       # Table walker walks requested
system.cpu00.itb.walker.walkRequestOrigin_Requested::Data            0                       # Table walker requests started/completed, data/inst
system.cpu00.itb.walker.walkRequestOrigin_Requested::Inst            0                       # Table walker requests started/completed, data/inst
system.cpu00.itb.walker.walkRequestOrigin_Requested::total            0                       # Table walker requests started/completed, data/inst
system.cpu00.itb.walker.walkRequestOrigin_Completed::Data            0                       # Table walker requests started/completed, data/inst
system.cpu00.itb.walker.walkRequestOrigin_Completed::Inst            0                       # Table walker requests started/completed, data/inst
system.cpu00.itb.walker.walkRequestOrigin_Completed::total            0                       # Table walker requests started/completed, data/inst
system.cpu00.itb.walker.walkRequestOrigin::total            0                       # Table walker requests started/completed, data/inst
system.cpu00.itb.inst_hits                          0                       # ITB inst hits
system.cpu00.itb.inst_misses                        0                       # ITB inst misses
system.cpu00.itb.read_hits                          0                       # DTB read hits
system.cpu00.itb.read_misses                        0                       # DTB read misses
system.cpu00.itb.write_hits                         0                       # DTB write hits
system.cpu00.itb.write_misses                       0                       # DTB write misses
system.cpu00.itb.flush_tlb                          0                       # Number of times complete TLB was flushed
system.cpu00.itb.flush_tlb_mva                      0                       # Number of times TLB was flushed by MVA
system.cpu00.itb.flush_tlb_mva_asid                 0                       # Number of times TLB was flushed by MVA & ASID
system.cpu00.itb.flush_tlb_asid                     0                       # Number of times TLB was flushed by ASID
system.cpu00.itb.flush_entries                      0                       # Number of entries that have been flushed from TLB
system.cpu00.itb.align_faults                       0                       # Number of TLB faults due to alignment restrictions
system.cpu00.itb.prefetch_faults                    0                       # Number of TLB faults due to prefetch
system.cpu00.itb.domain_faults                      0                       # Number of TLB faults due to domain restrictions
system.cpu00.itb.perms_faults                       0                       # Number of TLB faults due to permissions restrictions
system.cpu00.itb.read_accesses                      0                       # DTB read accesses
system.cpu00.itb.write_accesses                     0                       # DTB write accesses
system.cpu00.itb.inst_accesses                      0                       # ITB inst accesses
system.cpu00.itb.hits                               0                       # DTB hits
system.cpu00.itb.misses                             0                       # DTB misses
system.cpu00.itb.accesses                           0                       # DTB accesses
system.cpu00.workload.num_syscalls                549                       # Number of system calls
system.cpu00.numCycles                         178673                       # number of cpu cycles simulated
system.cpu00.numWorkItemsStarted                    0                       # number of work items this cpu started
system.cpu00.numWorkItemsCompleted                  0                       # number of work items this cpu completed
system.cpu00.fetch.icacheStallCycles            34804                       # Number of cycles fetch is stalled on an Icache miss
system.cpu00.fetch.Insts                       188715                       # Number of instructions fetch has processed
system.cpu00.fetch.Branches                     21793                       # Number of branches that fetch encountered
system.cpu00.fetch.predictedBranches            15867                       # Number of branches that fetch has predicted taken
system.cpu00.fetch.Cycles                      106593                       # Number of cycles fetch has run and was not squashing or blocked
system.cpu00.fetch.SquashCycles                  2465                       # Number of cycles fetch has spent squashing
system.cpu00.fetch.PendingTrapStallCycles            4                       # Number of stall cycles due to pending traps
system.cpu00.fetch.CacheLines                   21294                       # Number of cache lines fetched
system.cpu00.fetch.IcacheSquashes                 640                       # Number of outstanding Icache misses that were squashed
system.cpu00.fetch.rateDist::samples           142633                       # Number of instructions fetched each cycle (Total)
system.cpu00.fetch.rateDist::mean            1.452160                       # Number of instructions fetched each cycle (Total)
system.cpu00.fetch.rateDist::stdev           2.742363                       # Number of instructions fetched each cycle (Total)
system.cpu00.fetch.rateDist::underflows             0      0.00%      0.00% # Number of instructions fetched each cycle (Total)
system.cpu00.fetch.rateDist::0                 105439     73.92%     73.92% # Number of instructions fetched each cycle (Total)
system.cpu00.fetch.rateDist::1                   2954      2.07%     75.99% # Number of instructions fetched each cycle (Total)
system.cpu00.fetch.rateDist::2                   3476      2.44%     78.43% # Number of instructions fetched each cycle (Total)
system.cpu00.fetch.rateDist::3                   2277      1.60%     80.03% # Number of instructions fetched each cycle (Total)
system.cpu00.fetch.rateDist::4                   4742      3.32%     83.35% # Number of instructions fetched each cycle (Total)
system.cpu00.fetch.rateDist::5                   1506      1.06%     84.41% # Number of instructions fetched each cycle (Total)
system.cpu00.fetch.rateDist::6                   4799      3.36%     87.77% # Number of instructions fetched each cycle (Total)
system.cpu00.fetch.rateDist::7                   4423      3.10%     90.87% # Number of instructions fetched each cycle (Total)
system.cpu00.fetch.rateDist::8                  13017      9.13%    100.00% # Number of instructions fetched each cycle (Total)
system.cpu00.fetch.rateDist::overflows              0      0.00%    100.00% # Number of instructions fetched each cycle (Total)
system.cpu00.fetch.rateDist::min_value              0                       # Number of instructions fetched each cycle (Total)
system.cpu00.fetch.rateDist::max_value              8                       # Number of instructions fetched each cycle (Total)
system.cpu00.fetch.rateDist::total             142633                       # Number of instructions fetched each cycle (Total)
system.cpu00.fetch.branchRate                0.121971                       # Number of branch fetches per cycle
system.cpu00.fetch.rate                      1.056203                       # Number of inst fetches per cycle
system.cpu00.decode.IdleCycles                  22563                       # Number of cycles decode is idle
system.cpu00.decode.BlockedCycles               92304                       # Number of cycles decode is blocked
system.cpu00.decode.RunCycles                   11528                       # Number of cycles decode is running
system.cpu00.decode.UnblockCycles               15313                       # Number of cycles decode is unblocking
system.cpu00.decode.SquashCycles                  925                       # Number of cycles decode is squashing
system.cpu00.decode.BranchResolved               1133                       # Number of times decode resolved a branch
system.cpu00.decode.BranchMispred                 317                       # Number of times decode detected a branch misprediction
system.cpu00.decode.DecodedInsts               190773                       # Number of instructions handled by decode
system.cpu00.decode.SquashedInsts                1190                       # Number of squashed instructions handled by decode
system.cpu00.rename.SquashCycles                  925                       # Number of cycles rename is squashing
system.cpu00.rename.IdleCycles                  28088                       # Number of cycles rename is idle
system.cpu00.rename.BlockCycles                  7718                       # Number of cycles rename is blocking
system.cpu00.rename.serializeStallCycles        14590                       # count of cycles rename stalled for serializing inst
system.cpu00.rename.RunCycles                   21109                       # Number of cycles rename is running
system.cpu00.rename.UnblockCycles               70203                       # Number of cycles rename is unblocking
system.cpu00.rename.RenamedInsts               187909                       # Number of instructions processed by rename
system.cpu00.rename.ROBFullEvents                  32                       # Number of times rename has blocked due to ROB full
system.cpu00.rename.IQFullEvents                32100                       # Number of times rename has blocked due to IQ full
system.cpu00.rename.LQFullEvents                  250                       # Number of times rename has blocked due to LQ full
system.cpu00.rename.SQFullEvents                35987                       # Number of times rename has blocked due to SQ full
system.cpu00.rename.RenamedOperands            224073                       # Number of destination operands rename has renamed
system.cpu00.rename.RenameLookups              926402                       # Number of register rename lookups that rename has made
system.cpu00.rename.int_rename_lookups         289907                       # Number of integer rename lookups
system.cpu00.rename.fp_rename_lookups              22                       # Number of floating rename lookups
system.cpu00.rename.CommittedMaps              187592                       # Number of HB maps that are committed
system.cpu00.rename.UndoneMaps                  36481                       # Number of HB maps that are undone due to squashing
system.cpu00.rename.serializingInsts              176                       # count of serializing insts renamed
system.cpu00.rename.tempSerializingInsts          175                       # count of temporary serializing insts renamed
system.cpu00.rename.skidInsts                   75467                       # count of insts added to the skid buffer
system.cpu00.memDep0.insertedLoads              29480                       # Number of loads inserted to the mem dependence unit.
system.cpu00.memDep0.insertedStores             23724                       # Number of stores inserted to the mem dependence unit.
system.cpu00.memDep0.conflictingLoads             701                       # Number of conflicting loads.
system.cpu00.memDep0.conflictingStores            456                       # Number of conflicting stores.
system.cpu00.iq.iqInstsAdded                   184359                       # Number of instructions added to the IQ (excludes non-spec)
system.cpu00.iq.iqNonSpecInstsAdded               328                       # Number of non-speculative instructions added to the IQ
system.cpu00.iq.iqInstsIssued                  161508                       # Number of instructions issued
system.cpu00.iq.iqSquashedInstsIssued            2425                       # Number of squashed instructions issued
system.cpu00.iq.iqSquashedInstsExamined         28565                       # Number of squashed instructions iterated over during squash; mainly for profiling
system.cpu00.iq.iqSquashedOperandsExamined       114606                       # Number of squashed operands that are examined and possibly removed from graph
system.cpu00.iq.iqSquashedNonSpecRemoved           98                       # Number of squashed non-spec instructions that were removed
system.cpu00.iq.issued_per_cycle::samples       142633                       # Number of insts issued each cycle
system.cpu00.iq.issued_per_cycle::mean       1.132333                       # Number of insts issued each cycle
system.cpu00.iq.issued_per_cycle::stdev      0.972623                       # Number of insts issued each cycle
system.cpu00.iq.issued_per_cycle::underflows            0      0.00%      0.00% # Number of insts issued each cycle
system.cpu00.iq.issued_per_cycle::0             59276     41.56%     41.56% # Number of insts issued each cycle
system.cpu00.iq.issued_per_cycle::1              5206      3.65%     45.21% # Number of insts issued each cycle
system.cpu00.iq.issued_per_cycle::2             78151     54.79%    100.00% # Number of insts issued each cycle
system.cpu00.iq.issued_per_cycle::overflows            0      0.00%    100.00% # Number of insts issued each cycle
system.cpu00.iq.issued_per_cycle::min_value            0                       # Number of insts issued each cycle
system.cpu00.iq.issued_per_cycle::max_value            2                       # Number of insts issued each cycle
system.cpu00.iq.issued_per_cycle::total        142633                       # Number of insts issued each cycle
system.cpu00.iq.fu_full::No_OpClass                 0                       # attempts to use FU when none available
system.cpu00.iq.fu_full::IntAlu                     0                       # attempts to use FU when none available
system.cpu00.iq.fu_full::IntMult                    0                       # attempts to use FU when none available
system.cpu00.iq.fu_full::IntDiv                     0                       # attempts to use FU when none available
system.cpu00.iq.fu_full::FloatAdd                   0                       # attempts to use FU when none available
system.cpu00.iq.fu_full::FloatCmp                   0                       # attempts to use FU when none available
system.cpu00.iq.fu_full::FloatCvt                   0                       # attempts to use FU when none available
system.cpu00.iq.fu_full::FloatMult                  0                       # attempts to use FU when none available
system.cpu00.iq.fu_full::FloatDiv                   0                       # attempts to use FU when none available
system.cpu00.iq.fu_full::FloatSqrt                  0                       # attempts to use FU when none available
system.cpu00.iq.fu_full::SimdAdd                    0                       # attempts to use FU when none available
system.cpu00.iq.fu_full::SimdAddAcc                 0                       # attempts to use FU when none available
system.cpu00.iq.fu_full::SimdAlu                    0                       # attempts to use FU when none available
system.cpu00.iq.fu_full::SimdCmp                    0                       # attempts to use FU when none available
system.cpu00.iq.fu_full::SimdCvt                    0                       # attempts to use FU when none available
system.cpu00.iq.fu_full::SimdMisc                   0                       # attempts to use FU when none available
system.cpu00.iq.fu_full::SimdMult                   0                       # attempts to use FU when none available
system.cpu00.iq.fu_full::SimdMultAcc                0                       # attempts to use FU when none available
system.cpu00.iq.fu_full::SimdShift                  0                       # attempts to use FU when none available
system.cpu00.iq.fu_full::SimdShiftAcc               0                       # attempts to use FU when none available
system.cpu00.iq.fu_full::SimdSqrt                   0                       # attempts to use FU when none available
system.cpu00.iq.fu_full::SimdFloatAdd               0                       # attempts to use FU when none available
system.cpu00.iq.fu_full::SimdFloatAlu               0                       # attempts to use FU when none available
system.cpu00.iq.fu_full::SimdFloatCmp               0                       # attempts to use FU when none available
system.cpu00.iq.fu_full::SimdFloatCvt               0                       # attempts to use FU when none available
system.cpu00.iq.fu_full::SimdFloatDiv               0                       # attempts to use FU when none available
system.cpu00.iq.fu_full::SimdFloatMisc              0                       # attempts to use FU when none available
system.cpu00.iq.fu_full::SimdFloatMult              0                       # attempts to use FU when none available
system.cpu00.iq.fu_full::SimdFloatMultAcc            0                       # attempts to use FU when none available
[...]
system.membus.pkt_count_system.cpu07.icache.mem_side::system.mem_ctrls.port          104                       # Packet count per connected master and slave (bytes)
system.membus.pkt_count_system.cpu07.dcache.mem_side::system.mem_ctrls.port          313                       # Packet count per connected master and slave (bytes)
system.membus.pkt_count_system.cpu08.icache.mem_side::system.mem_ctrls.port          106                       # Packet count per connected master and slave (bytes)
system.membus.pkt_count_system.cpu08.dcache.mem_side::system.mem_ctrls.port          300                       # Packet count per connected master and slave (bytes)
system.membus.pkt_count_system.cpu09.icache.mem_side::system.mem_ctrls.port          104                       # Packet count per connected master and slave (bytes)
system.membus.pkt_count_system.cpu09.dcache.mem_side::system.mem_ctrls.port          297                       # Packet count per connected master and slave (bytes)
system.membus.pkt_count_system.cpu10.icache.mem_side::system.mem_ctrls.port          108                       # Packet count per connected master and slave (bytes)
system.membus.pkt_count_system.cpu10.dcache.mem_side::system.mem_ctrls.port          296                       # Packet count per connected master and slave (bytes)
system.membus.pkt_count_system.cpu11.icache.mem_side::system.mem_ctrls.port          110                       # Packet count per connected master and slave (bytes)
system.membus.pkt_count_system.cpu11.dcache.mem_side::system.mem_ctrls.port          299                       # Packet count per connected master and slave (bytes)
system.membus.pkt_count_system.cpu12.icache.mem_side::system.mem_ctrls.port          106                       # Packet count per connected master and slave (bytes)
system.membus.pkt_count_system.cpu12.dcache.mem_side::system.mem_ctrls.port          290                       # Packet count per connected master and slave (bytes)
system.membus.pkt_count_system.cpu13.icache.mem_side::system.mem_ctrls.port          104                       # Packet count per connected master and slave (bytes)
system.membus.pkt_count_system.cpu13.dcache.mem_side::system.mem_ctrls.port          287                       # Packet count per connected master and slave (bytes)
system.membus.pkt_count_system.cpu14.icache.mem_side::system.mem_ctrls.port           98                       # Packet count per connected master and slave (bytes)
system.membus.pkt_count_system.cpu14.dcache.mem_side::system.mem_ctrls.port          292                       # Packet count per connected master and slave (bytes)
system.membus.pkt_count_system.cpu15.icache.mem_side::system.mem_ctrls.port          100                       # Packet count per connected master and slave (bytes)
system.membus.pkt_count_system.cpu15.dcache.mem_side::system.mem_ctrls.port          289                       # Packet count per connected master and slave (bytes)
system.membus.pkt_count::total                   9370                       # Packet count per connected master and slave (bytes)
system.membus.pkt_size_system.cpu00.icache.mem_side::system.mem_ctrls.port        39040                       # Cumulative packet size per connected master and slave (bytes)
system.membus.pkt_size_system.cpu00.dcache.mem_side::system.mem_ctrls.port        69760                       # Cumulative packet size per connected master and slave (bytes)
system.membus.pkt_size_system.cpu01.icache.mem_side::system.mem_ctrls.port         3264                       # Cumulative packet size per connected master and slave (bytes)
system.membus.pkt_size_system.cpu01.dcache.mem_side::system.mem_ctrls.port         1216                       # Cumulative packet size per connected master and slave (bytes)
system.membus.pkt_size_system.cpu02.icache.mem_side::system.mem_ctrls.port         3264                       # Cumulative packet size per connected master and slave (bytes)
system.membus.pkt_size_system.cpu02.dcache.mem_side::system.mem_ctrls.port         1216                       # Cumulative packet size per connected master and slave (bytes)
system.membus.pkt_size_system.cpu03.icache.mem_side::system.mem_ctrls.port         3264                       # Cumulative packet size per connected master and slave (bytes)
system.membus.pkt_size_system.cpu03.dcache.mem_side::system.mem_ctrls.port         1280                       # Cumulative packet size per connected master and slave (bytes)
system.membus.pkt_size_system.cpu04.icache.mem_side::system.mem_ctrls.port         3264                       # Cumulative packet size per connected master and slave (bytes)
system.membus.pkt_size_system.cpu04.dcache.mem_side::system.mem_ctrls.port         1216                       # Cumulative packet size per connected master and slave (bytes)
system.membus.pkt_size_system.cpu05.icache.mem_side::system.mem_ctrls.port         3264                       # Cumulative packet size per connected master and slave (bytes)
system.membus.pkt_size_system.cpu05.dcache.mem_side::system.mem_ctrls.port         1280                       # Cumulative packet size per connected master and slave (bytes)
system.membus.pkt_size_system.cpu06.icache.mem_side::system.mem_ctrls.port         3392                       # Cumulative packet size per connected master and slave (bytes)
system.membus.pkt_size_system.cpu06.dcache.mem_side::system.mem_ctrls.port         1408                       # Cumulative packet size per connected master and slave (bytes)
system.membus.pkt_size_system.cpu07.icache.mem_side::system.mem_ctrls.port         3328                       # Cumulative packet size per connected master and slave (bytes)
system.membus.pkt_size_system.cpu07.dcache.mem_side::system.mem_ctrls.port         1600                       # Cumulative packet size per connected master and slave (bytes)
system.membus.pkt_size_system.cpu08.icache.mem_side::system.mem_ctrls.port         3392                       # Cumulative packet size per connected master and slave (bytes)
system.membus.pkt_size_system.cpu08.dcache.mem_side::system.mem_ctrls.port         1600                       # Cumulative packet size per connected master and slave (bytes)
system.membus.pkt_size_system.cpu09.icache.mem_side::system.mem_ctrls.port         3328                       # Cumulative packet size per connected master and slave (bytes)
system.membus.pkt_size_system.cpu09.dcache.mem_side::system.mem_ctrls.port         1472                       # Cumulative packet size per connected master and slave (bytes)
system.membus.pkt_size_system.cpu10.icache.mem_side::system.mem_ctrls.port         3456                       # Cumulative packet size per connected master and slave (bytes)
system.membus.pkt_size_system.cpu10.dcache.mem_side::system.mem_ctrls.port         1344                       # Cumulative packet size per connected master and slave (bytes)
system.membus.pkt_size_system.cpu11.icache.mem_side::system.mem_ctrls.port         3520                       # Cumulative packet size per connected master and slave (bytes)
system.membus.pkt_size_system.cpu11.dcache.mem_side::system.mem_ctrls.port         1472                       # Cumulative packet size per connected master and slave (bytes)
system.membus.pkt_size_system.cpu12.icache.mem_side::system.mem_ctrls.port         3392                       # Cumulative packet size per connected master and slave (bytes)
system.membus.pkt_size_system.cpu12.dcache.mem_side::system.mem_ctrls.port         1408                       # Cumulative packet size per connected master and slave (bytes)
system.membus.pkt_size_system.cpu13.icache.mem_side::system.mem_ctrls.port         3328                       # Cumulative packet size per connected master and slave (bytes)
system.membus.pkt_size_system.cpu13.dcache.mem_side::system.mem_ctrls.port         1408                       # Cumulative packet size per connected master and slave (bytes)
system.membus.pkt_size_system.cpu14.icache.mem_side::system.mem_ctrls.port         3136                       # Cumulative packet size per connected master and slave (bytes)
system.membus.pkt_size_system.cpu14.dcache.mem_side::system.mem_ctrls.port         1216                       # Cumulative packet size per connected master and slave (bytes)
system.membus.pkt_size_system.cpu15.icache.mem_side::system.mem_ctrls.port         3200                       # Cumulative packet size per connected master and slave (bytes)
system.membus.pkt_size_system.cpu15.dcache.mem_side::system.mem_ctrls.port         1344                       # Cumulative packet size per connected master and slave (bytes)
system.membus.pkt_size::total                  179072                       # Cumulative packet size per connected master and slave (bytes)
system.membus.snoops                             3843                       # Total snoops (count)
system.membus.snoop_fanout::samples              6683                       # Request fanout histogram
system.membus.snoop_fanout::mean                   31                       # Request fanout histogram
system.membus.snoop_fanout::stdev                   0                       # Request fanout histogram
system.membus.snoop_fanout::underflows              0      0.00%      0.00% # Request fanout histogram
system.membus.snoop_fanout::0                       0      0.00%      0.00% # Request fanout histogram
system.membus.snoop_fanout::1                       0      0.00%      0.00% # Request fanout histogram
system.membus.snoop_fanout::2                       0      0.00%      0.00% # Request fanout histogram
system.membus.snoop_fanout::3                       0      0.00%      0.00% # Request fanout histogram
system.membus.snoop_fanout::4                       0      0.00%      0.00% # Request fanout histogram
system.membus.snoop_fanout::5                       0      0.00%      0.00% # Request fanout histogram
system.membus.snoop_fanout::6                       0      0.00%      0.00% # Request fanout histogram
system.membus.snoop_fanout::7                       0      0.00%      0.00% # Request fanout histogram
system.membus.snoop_fanout::8                       0      0.00%      0.00% # Request fanout histogram
system.membus.snoop_fanout::9                       0      0.00%      0.00% # Request fanout histogram
system.membus.snoop_fanout::10                      0      0.00%      0.00% # Request fanout histogram
system.membus.snoop_fanout::11                      0      0.00%      0.00% # Request fanout histogram
system.membus.snoop_fanout::12                      0      0.00%      0.00% # Request fanout histogram
system.membus.snoop_fanout::13                      0      0.00%      0.00% # Request fanout histogram
system.membus.snoop_fanout::14                      0      0.00%      0.00% # Request fanout histogram
system.membus.snoop_fanout::15                      0      0.00%      0.00% # Request fanout histogram
system.membus.snoop_fanout::16                      0      0.00%      0.00% # Request fanout histogram
system.membus.snoop_fanout::17                      0      0.00%      0.00% # Request fanout histogram
system.membus.snoop_fanout::18                      0      0.00%      0.00% # Request fanout histogram
system.membus.snoop_fanout::19                      0      0.00%      0.00% # Request fanout histogram
system.membus.snoop_fanout::20                      0      0.00%      0.00% # Request fanout histogram
system.membus.snoop_fanout::21                      0      0.00%      0.00% # Request fanout histogram
system.membus.snoop_fanout::22                      0      0.00%      0.00% # Request fanout histogram
system.membus.snoop_fanout::23                      0      0.00%      0.00% # Request fanout histogram
system.membus.snoop_fanout::24                      0      0.00%      0.00% # Request fanout histogram
system.membus.snoop_fanout::25                      0      0.00%      0.00% # Request fanout histogram
system.membus.snoop_fanout::26                      0      0.00%      0.00% # Request fanout histogram
system.membus.snoop_fanout::27                      0      0.00%      0.00% # Request fanout histogram
system.membus.snoop_fanout::28                      0      0.00%      0.00% # Request fanout histogram
system.membus.snoop_fanout::29                      0      0.00%      0.00% # Request fanout histogram
system.membus.snoop_fanout::30                      0      0.00%      0.00% # Request fanout histogram
system.membus.snoop_fanout::31                   6683    100.00%    100.00% # Request fanout histogram
system.membus.snoop_fanout::32                      0      0.00%    100.00% # Request fanout histogram
system.membus.snoop_fanout::overflows               0      0.00%    100.00% # Request fanout histogram
system.membus.snoop_fanout::min_value              31                       # Request fanout histogram
system.membus.snoop_fanout::max_value              31                       # Request fanout histogram
system.membus.snoop_fanout::total                6683                       # Request fanout histogram
system.membus.reqLayer0.occupancy             8301241                       # Layer occupancy (ticks)
system.membus.reqLayer0.utilization               9.3                       # Layer utilization (%)
system.membus.respLayer1.occupancy            3243750                       # Layer occupancy (ticks)
system.membus.respLayer1.utilization              3.6                       # Layer utilization (%)
system.membus.respLayer2.occupancy            5280489                       # Layer occupancy (ticks)
system.membus.respLayer2.utilization              5.9                       # Layer utilization (%)
system.membus.respLayer5.occupancy             272000                       # Layer occupancy (ticks)
system.membus.respLayer5.utilization              0.3                       # Layer utilization (%)
system.membus.respLayer6.occupancy            1481530                       # Layer occupancy (ticks)
system.membus.respLayer6.utilization              1.7                       # Layer utilization (%)
system.membus.respLayer9.occupancy             272750                       # Layer occupancy (ticks)
system.membus.respLayer9.utilization              0.3                       # Layer utilization (%)
system.membus.respLayer10.occupancy           1503145                       # Layer occupancy (ticks)
system.membus.respLayer10.utilization             1.7                       # Layer utilization (%)
system.membus.respLayer13.occupancy            275250                       # Layer occupancy (ticks)
system.membus.respLayer13.utilization             0.3                       # Layer utilization (%)
system.membus.respLayer14.occupancy           1489878                       # Layer occupancy (ticks)
system.membus.respLayer14.utilization             1.7                       # Layer utilization (%)
system.membus.respLayer17.occupancy            272000                       # Layer occupancy (ticks)
system.membus.respLayer17.utilization             0.3                       # Layer utilization (%)
system.membus.respLayer18.occupancy           1493072                       # Layer occupancy (ticks)
system.membus.respLayer18.utilization             1.7                       # Layer utilization (%)
system.membus.respLayer21.occupancy            271000                       # Layer occupancy (ticks)
system.membus.respLayer21.utilization             0.3                       # Layer utilization (%)
system.membus.respLayer22.occupancy           1469289                       # Layer occupancy (ticks)
system.membus.respLayer22.utilization             1.6                       # Layer utilization (%)
system.membus.respLayer25.occupancy            283250                       # Layer occupancy (ticks)
system.membus.respLayer25.utilization             0.3                       # Layer utilization (%)
system.membus.respLayer26.occupancy           1542518                       # Layer occupancy (ticks)
system.membus.respLayer26.utilization             1.7                       # Layer utilization (%)
system.membus.respLayer29.occupancy            274500                       # Layer occupancy (ticks)
system.membus.respLayer29.utilization             0.3                       # Layer utilization (%)
system.membus.respLayer30.occupancy           1499352                       # Layer occupancy (ticks)
system.membus.respLayer30.utilization             1.7                       # Layer utilization (%)
system.membus.respLayer33.occupancy            283500                       # Layer occupancy (ticks)
system.membus.respLayer33.utilization             0.3                       # Layer utilization (%)
system.membus.respLayer34.occupancy           1426882                       # Layer occupancy (ticks)
system.membus.respLayer34.utilization             1.6                       # Layer utilization (%)
system.membus.respLayer37.occupancy            276250                       # Layer occupancy (ticks)
system.membus.respLayer37.utilization             0.3                       # Layer utilization (%)
system.membus.respLayer38.occupancy           1466010                       # Layer occupancy (ticks)
system.membus.respLayer38.utilization             1.6                       # Layer utilization (%)
system.membus.respLayer41.occupancy            287500                       # Layer occupancy (ticks)
system.membus.respLayer41.utilization             0.3                       # Layer utilization (%)
system.membus.respLayer42.occupancy           1472718                       # Layer occupancy (ticks)
system.membus.respLayer42.utilization             1.6                       # Layer utilization (%)
system.membus.respLayer45.occupancy            290500                       # Layer occupancy (ticks)
system.membus.respLayer45.utilization             0.3                       # Layer utilization (%)
system.membus.respLayer46.occupancy           1472791                       # Layer occupancy (ticks)
system.membus.respLayer46.utilization             1.6                       # Layer utilization (%)
system.membus.respLayer49.occupancy            283750                       # Layer occupancy (ticks)
system.membus.respLayer49.utilization             0.3                       # Layer utilization (%)
system.membus.respLayer50.occupancy           1472210                       # Layer occupancy (ticks)
system.membus.respLayer50.utilization             1.6                       # Layer utilization (%)
system.membus.respLayer53.occupancy            281500                       # Layer occupancy (ticks)
system.membus.respLayer53.utilization             0.3                       # Layer utilization (%)
system.membus.respLayer54.occupancy           1421284                       # Layer occupancy (ticks)
system.membus.respLayer54.utilization             1.6                       # Layer utilization (%)
system.membus.respLayer57.occupancy            259250                       # Layer occupancy (ticks)
system.membus.respLayer57.utilization             0.3                       # Layer utilization (%)
system.membus.respLayer58.occupancy           1436323                       # Layer occupancy (ticks)
system.membus.respLayer58.utilization             1.6                       # Layer utilization (%)
system.membus.respLayer61.occupancy            264250                       # Layer occupancy (ticks)
system.membus.respLayer61.utilization             0.3                       # Layer utilization (%)
system.membus.respLayer62.occupancy           1420318                       # Layer occupancy (ticks)
system.membus.respLayer62.utilization             1.6                       # Layer utilization (%)

---------- End Simulation Statistics   ----------
