
---------- Begin Simulation Statistics ----------
sim_seconds                                  0.000076                       # Number of seconds simulated
sim_ticks                                    75532500                       # Number of ticks simulated
final_tick                                   75532500                       # Number of ticks from beginning of simulation (restored from checkpoints and never reset)
sim_freq                                 1000000000000                       # Frequency of simulated ticks
host_inst_rate                                 178284                       # Simulator instruction rate (inst/s)
host_op_rate                                   182464                       # Simulator op (including micro ops) rate (op/s)
host_tick_rate                                7512844                       # Simulator tick rate (ticks/s)
host_mem_usage                                 722276                       # Number of bytes of host memory used
host_seconds                                    10.05                       # Real time elapsed on the host
sim_insts                                     1792424                       # Number of instructions simulated
sim_ops                                       1834448                       # Number of ops (including micro ops) simulated
system.voltage_domain.voltage                       1                       # Voltage in Volts
system.clk_domain.clock                          1000                       # Clock period in ticks
system.mem_ctrls.bytes_read::cpu00.inst         38528                       # Number of bytes read from this memory
system.mem_ctrls.bytes_read::cpu00.data         63296                       # Number of bytes read from this memory
system.mem_ctrls.bytes_read::cpu01.inst          3264                       # Number of bytes read from this memory
system.mem_ctrls.bytes_read::cpu01.data          1344                       # Number of bytes read from this memory
system.mem_ctrls.bytes_read::cpu02.inst          3328                       # Number of bytes read from this memory
system.mem_ctrls.bytes_read::cpu02.data          1408                       # Number of bytes read from this memory
system.mem_ctrls.bytes_read::cpu03.inst          3328                       # Number of bytes read from this memory
system.mem_ctrls.bytes_read::cpu03.data          1472                       # Number of bytes read from this memory
system.mem_ctrls.bytes_read::cpu04.inst          3328                       # Number of bytes read from this memory
system.mem_ctrls.bytes_read::cpu04.data          1408                       # Number of bytes read from this memory
system.mem_ctrls.bytes_read::cpu05.inst          3328                       # Number of bytes read from this memory
system.mem_ctrls.bytes_read::cpu05.data          1472                       # Number of bytes read from this memory
system.mem_ctrls.bytes_read::cpu06.inst          3264                       # Number of bytes read from this memory
system.mem_ctrls.bytes_read::cpu06.data          1472                       # Number of bytes read from this memory
system.mem_ctrls.bytes_read::cpu07.inst          3328                       # Number of bytes read from this memory
system.mem_ctrls.bytes_read::cpu07.data          1728                       # Number of bytes read from this memory
system.mem_ctrls.bytes_read::cpu08.inst          3328                       # Number of bytes read from this memory
system.mem_ctrls.bytes_read::cpu08.data          1792                       # Number of bytes read from this memory
system.mem_ctrls.bytes_read::cpu09.inst          3328                       # Number of bytes read from this memory
system.mem_ctrls.bytes_read::cpu09.data          1600                       # Number of bytes read from this memory
system.mem_ctrls.bytes_read::cpu10.inst          3392                       # Number of bytes read from this memory
system.mem_ctrls.bytes_read::cpu10.data          1472                       # Number of bytes read from this memory
system.mem_ctrls.bytes_read::cpu11.inst          3392                       # Number of bytes read from this memory
system.mem_ctrls.bytes_read::cpu11.data          1664                       # Number of bytes read from this memory
system.mem_ctrls.bytes_read::cpu12.inst          3456                       # Number of bytes read from this memory
system.mem_ctrls.bytes_read::cpu12.data          1600                       # Number of bytes read from this memory
system.mem_ctrls.bytes_read::cpu13.inst          3584                       # Number of bytes read from this memory
system.mem_ctrls.bytes_read::cpu13.data          1600                       # Number of bytes read from this memory
system.mem_ctrls.bytes_read::cpu14.inst          3200                       # Number of bytes read from this memory
system.mem_ctrls.bytes_read::cpu14.data          1408                       # Number of bytes read from this memory
system.mem_ctrls.bytes_read::cpu15.inst          3264                       # Number of bytes read from this memory
system.mem_ctrls.bytes_read::cpu15.data          1472                       # Number of bytes read from this memory
system.mem_ctrls.bytes_read::total             174848                       # Number of bytes read from this memory
system.mem_ctrls.bytes_inst_read::cpu00.inst        38528                       # Number of instructions bytes read from this memory
system.mem_ctrls.bytes_inst_read::cpu01.inst         3264                       # Number of instructions bytes read from this memory
system.mem_ctrls.bytes_inst_read::cpu02.inst         3328                       # Number of instructions bytes read from this memory
system.mem_ctrls.bytes_inst_read::cpu03.inst         3328                       # Number of instructions bytes read from this memory
system.mem_ctrls.bytes_inst_read::cpu04.inst         3328                       # Number of instructions bytes read from this memory
system.mem_ctrls.bytes_inst_read::cpu05.inst         3328                       # Number of instructions bytes read from this memory
system.mem_ctrls.bytes_inst_read::cpu06.inst         3264                       # Number of instructions bytes read from this memory
system.mem_ctrls.bytes_inst_read::cpu07.inst         3328                       # Number of instructions bytes read from this memory
system.mem_ctrls.bytes_inst_read::cpu08.inst         3328                       # Number of instructions bytes read from this memory
system.mem_ctrls.bytes_inst_read::cpu09.inst         3328                       # Number of instructions bytes read from this memory
system.mem_ctrls.bytes_inst_read::cpu10.inst         3392                       # Number of instructions bytes read from this memory
system.mem_ctrls.bytes_inst_read::cpu11.inst         3392                       # Number of instructions bytes read from this memory
system.mem_ctrls.bytes_inst_read::cpu12.inst         3456                       # Number of instructions bytes read from this memory
system.mem_ctrls.bytes_inst_read::cpu13.inst         3584                       # Number of instructions bytes read from this memory
system.mem_ctrls.bytes_inst_read::cpu14.inst         3200                       # Number of instructions bytes read from this memory
system.mem_ctrls.bytes_inst_read::cpu15.inst         3264                       # Number of instructions bytes read from this memory
system.mem_ctrls.bytes_inst_read::total         88640                       # Number of instructions bytes read from this memory
system.mem_ctrls.bytes_written::writebacks         6656                       # Number of bytes written to this memory
system.mem_ctrls.bytes_written::total            6656                       # Number of bytes written to this memory
system.mem_ctrls.num_reads::cpu00.inst            602                       # Number of read requests responded to by this memory
system.mem_ctrls.num_reads::cpu00.data            989                       # Number of read requests responded to by this memory
system.mem_ctrls.num_reads::cpu01.inst             51                       # Number of read requests responded to by this memory
system.mem_ctrls.num_reads::cpu01.data             21                       # Number of read requests responded to by this memory
system.mem_ctrls.num_reads::cpu02.inst             52                       # Number of read requests responded to by this memory
system.mem_ctrls.num_reads::cpu02.data             22                       # Number of read requests responded to by this memory
system.mem_ctrls.num_reads::cpu03.inst             52                       # Number of read requests responded to by this memory
system.mem_ctrls.num_reads::cpu03.data             23                       # Number of read requests responded to by this memory
system.mem_ctrls.num_reads::cpu04.inst             52                       # Number of read requests responded to by this memory
system.mem_ctrls.num_reads::cpu04.data             22                       # Number of read requests responded to by this memory
system.mem_ctrls.num_reads::cpu05.inst             52                       # Number of read requests responded to by this memory
system.mem_ctrls.num_reads::cpu05.data             23                       # Number of read requests responded to by this memory
system.mem_ctrls.num_reads::cpu06.inst             51                       # Number of read requests responded to by this memory
system.mem_ctrls.num_reads::cpu06.data             23                       # Number of read requests responded to by this memory
system.mem_ctrls.num_reads::cpu07.inst             52                       # Number of read requests responded to by this memory
system.mem_ctrls.num_reads::cpu07.data             27                       # Number of read requests responded to by this memory
system.mem_ctrls.num_reads::cpu08.inst             52                       # Number of read requests responded to by this memory
system.mem_ctrls.num_reads::cpu08.data             28                       # Number of read requests responded to by this memory
system.mem_ctrls.num_reads::cpu09.inst             52                       # Number of read requests responded to by this memory
system.mem_ctrls.num_reads::cpu09.data             25                       # Number of read requests responded to by this memory
system.mem_ctrls.num_reads::cpu10.inst             53                       # Number of read requests responded to by this memory
system.mem_ctrls.num_reads::cpu10.data             23                       # Number of read requests responded to by this memory
system.mem_ctrls.num_reads::cpu11.inst             53                       # Number of read requests responded to by this memory
system.mem_ctrls.num_reads::cpu11.data             26                       # Number of read requests responded to by this memory
system.mem_ctrls.num_reads::cpu12.inst             54                       # Number of read requests responded to by this memory
system.mem_ctrls.num_reads::cpu12.data             25                       # Number of read requests responded to by this memory
system.mem_ctrls.num_reads::cpu13.inst             56                       # Number of read requests responded to by this memory
system.mem_ctrls.num_reads::cpu13.data             25                       # Number of read requests responded to by this memory
system.mem_ctrls.num_reads::cpu14.inst             50                       # Number of read requests responded to by this memory
system.mem_ctrls.num_reads::cpu14.data             22                       # Number of read requests responded to by this memory
system.mem_ctrls.num_reads::cpu15.inst             51                       # Number of read requests responded to by this memory
system.mem_ctrls.num_reads::cpu15.data             23                       # Number of read requests responded to by this memory
system.mem_ctrls.num_reads::total                2732                       # Number of read requests responded to by this memory
system.mem_ctrls.num_writes::writebacks           104                       # Number of write requests responded to by this memory
system.mem_ctrls.num_writes::total                104                       # Number of write requests responded to by this memory
system.mem_ctrls.bw_read::cpu00.inst        510085063                       # Total read bandwidth from this memory (bytes/s)
system.mem_ctrls.bw_read::cpu00.data        837996889                       # Total read bandwidth from this memory (bytes/s)
system.mem_ctrls.bw_read::cpu01.inst         43213186                       # Total read bandwidth from this memory (bytes/s)
system.mem_ctrls.bw_read::cpu01.data         17793665                       # Total read bandwidth from this memory (bytes/s)
system.mem_ctrls.bw_read::cpu02.inst         44060504                       # Total read bandwidth from this memory (bytes/s)
system.mem_ctrls.bw_read::cpu02.data         18640982                       # Total read bandwidth from this memory (bytes/s)
system.mem_ctrls.bw_read::cpu03.inst         44060504                       # Total read bandwidth from this memory (bytes/s)
system.mem_ctrls.bw_read::cpu03.data         19488300                       # Total read bandwidth from this memory (bytes/s)
system.mem_ctrls.bw_read::cpu04.inst         44060504                       # Total read bandwidth from this memory (bytes/s)
system.mem_ctrls.bw_read::cpu04.data         18640982                       # Total read bandwidth from this memory (bytes/s)
system.mem_ctrls.bw_read::cpu05.inst         44060504                       # Total read bandwidth from this memory (bytes/s)
system.mem_ctrls.bw_read::cpu05.data         19488300                       # Total read bandwidth from this memory (bytes/s)
system.mem_ctrls.bw_read::cpu06.inst         43213186                       # Total read bandwidth from this memory (bytes/s)
system.mem_ctrls.bw_read::cpu06.data         19488300                       # Total read bandwidth from this memory (bytes/s)
system.mem_ctrls.bw_read::cpu07.inst         44060504                       # Total read bandwidth from this memory (bytes/s)
system.mem_ctrls.bw_read::cpu07.data         22877569                       # Total read bandwidth from this memory (bytes/s)
system.mem_ctrls.bw_read::cpu08.inst         44060504                       # Total read bandwidth from this memory (bytes/s)
system.mem_ctrls.bw_read::cpu08.data         23724887                       # Total read bandwidth from this memory (bytes/s)
system.mem_ctrls.bw_read::cpu09.inst         44060504                       # Total read bandwidth from this memory (bytes/s)
system.mem_ctrls.bw_read::cpu09.data         21182934                       # Total read bandwidth from this memory (bytes/s)
system.mem_ctrls.bw_read::cpu10.inst         44907821                       # Total read bandwidth from this memory (bytes/s)
system.mem_ctrls.bw_read::cpu10.data         19488300                       # Total read bandwidth from this memory (bytes/s)
system.mem_ctrls.bw_read::cpu11.inst         44907821                       # Total read bandwidth from this memory (bytes/s)
system.mem_ctrls.bw_read::cpu11.data         22030252                       # Total read bandwidth from this memory (bytes/s)
system.mem_ctrls.bw_read::cpu12.inst         45755139                       # Total read bandwidth from this memory (bytes/s)
system.mem_ctrls.bw_read::cpu12.data         21182934                       # Total read bandwidth from this memory (bytes/s)
system.mem_ctrls.bw_read::cpu13.inst         47449773                       # Total read bandwidth from this memory (bytes/s)
system.mem_ctrls.bw_read::cpu13.data         21182934                       # Total read bandwidth from this memory (bytes/s)
system.mem_ctrls.bw_read::cpu14.inst         42365869                       # Total read bandwidth from this memory (bytes/s)
system.mem_ctrls.bw_read::cpu14.data         18640982                       # Total read bandwidth from this memory (bytes/s)
system.mem_ctrls.bw_read::cpu15.inst         43213186                       # Total read bandwidth from this memory (bytes/s)
system.mem_ctrls.bw_read::cpu15.data         19488300                       # Total read bandwidth from this memory (bytes/s)
system.mem_ctrls.bw_read::total            2314871082                       # Total read bandwidth from this memory (bytes/s)
system.mem_ctrls.bw_inst_read::cpu00.inst    510085063                       # Instruction read bandwidth from this memory (bytes/s)
system.mem_ctrls.bw_inst_read::cpu01.inst     43213186                       # Instruction read bandwidth from this memory (bytes/s)
system.mem_ctrls.bw_inst_read::cpu02.inst     44060504                       # Instruction read bandwidth from this memory (bytes/s)
system.mem_ctrls.bw_inst_read::cpu03.inst     44060504                       # Instruction read bandwidth from this memory (bytes/s)
system.mem_ctrls.bw_inst_read::cpu04.inst     44060504                       # Instruction read bandwidth from this memory (bytes/s)
system.mem_ctrls.bw_inst_read::cpu05.inst     44060504                       # Instruction read bandwidth from this memory (bytes/s)
system.mem_ctrls.bw_inst_read::cpu06.inst     43213186                       # Instruction read bandwidth from this memory (bytes/s)
system.mem_ctrls.bw_inst_read::cpu07.inst     44060504                       # Instruction read bandwidth from this memory (bytes/s)
system.mem_ctrls.bw_inst_read::cpu08.inst     44060504                       # Instruction read bandwidth from this memory (bytes/s)
system.mem_ctrls.bw_inst_read::cpu09.inst     44060504                       # Instruction read bandwidth from this memory (bytes/s)
system.mem_ctrls.bw_inst_read::cpu10.inst     44907821                       # Instruction read bandwidth from this memory (bytes/s)
system.mem_ctrls.bw_inst_read::cpu11.inst     44907821                       # Instruction read bandwidth from this memory (bytes/s)
system.mem_ctrls.bw_inst_read::cpu12.inst     45755139                       # Instruction read bandwidth from this memory (bytes/s)
system.mem_ctrls.bw_inst_read::cpu13.inst     47449773                       # Instruction read bandwidth from this memory (bytes/s)
system.mem_ctrls.bw_inst_read::cpu14.inst     42365869                       # Instruction read bandwidth from this memory (bytes/s)
system.mem_ctrls.bw_inst_read::cpu15.inst     43213186                       # Instruction read bandwidth from this memory (bytes/s)
system.mem_ctrls.bw_inst_read::total       1173534571                       # Instruction read bandwidth from this memory (bytes/s)
system.mem_ctrls.bw_write::writebacks        88121008                       # Write bandwidth from this memory (bytes/s)
system.mem_ctrls.bw_write::total             88121008                       # Write bandwidth from this memory (bytes/s)
system.mem_ctrls.bw_total::writebacks        88121008                       # Total bandwidth to/from this memory (bytes/s)
system.mem_ctrls.bw_total::cpu00.inst       510085063                       # Total bandwidth to/from this memory (bytes/s)
system.mem_ctrls.bw_total::cpu00.data       837996889                       # Total bandwidth to/from this memory (bytes/s)
system.mem_ctrls.bw_total::cpu01.inst        43213186                       # Total bandwidth to/from this memory (bytes/s)
system.mem_ctrls.bw_total::cpu01.data        17793665                       # Total bandwidth to/from this memory (bytes/s)
system.mem_ctrls.bw_total::cpu02.inst        44060504                       # Total bandwidth to/from this memory (bytes/s)
system.mem_ctrls.bw_total::cpu02.data        18640982                       # Total bandwidth to/from this memory (bytes/s)
system.mem_ctrls.bw_total::cpu03.inst        44060504                       # Total bandwidth to/from this memory (bytes/s)
system.mem_ctrls.bw_total::cpu03.data        19488300                       # Total bandwidth to/from this memory (bytes/s)
system.mem_ctrls.bw_total::cpu04.inst        44060504                       # Total bandwidth to/from this memory (bytes/s)
system.mem_ctrls.bw_total::cpu04.data        18640982                       # Total bandwidth to/from this memory (bytes/s)
system.mem_ctrls.bw_total::cpu05.inst        44060504                       # Total bandwidth to/from this memory (bytes/s)
system.mem_ctrls.bw_total::cpu05.data        19488300                       # Total bandwidth to/from this memory (bytes/s)
system.mem_ctrls.bw_total::cpu06.inst        43213186                       # Total bandwidth to/from this memory (bytes/s)
system.mem_ctrls.bw_total::cpu06.data        19488300                       # Total bandwidth to/from this memory (bytes/s)
system.mem_ctrls.bw_total::cpu07.inst        44060504                       # Total bandwidth to/from this memory (bytes/s)
system.mem_ctrls.bw_total::cpu07.data        22877569                       # Total bandwidth to/from this memory (bytes/s)
system.mem_ctrls.bw_total::cpu08.inst        44060504                       # Total bandwidth to/from this memory (bytes/s)
system.mem_ctrls.bw_total::cpu08.data        23724887                       # Total bandwidth to/from this memory (bytes/s)
system.mem_ctrls.bw_total::cpu09.inst        44060504                       # Total bandwidth to/from this memory (bytes/s)
system.mem_ctrls.bw_total::cpu09.data        21182934                       # Total bandwidth to/from this memory (bytes/s)
system.mem_ctrls.bw_total::cpu10.inst        44907821                       # Total bandwidth to/from this memory (bytes/s)
system.mem_ctrls.bw_total::cpu10.data        19488300                       # Total bandwidth to/from this memory (bytes/s)
system.mem_ctrls.bw_total::cpu11.inst        44907821                       # Total bandwidth to/from this memory (bytes/s)
system.mem_ctrls.bw_total::cpu11.data        22030252                       # Total bandwidth to/from this memory (bytes/s)
system.mem_ctrls.bw_total::cpu12.inst        45755139                       # Total bandwidth to/from this memory (bytes/s)
system.mem_ctrls.bw_total::cpu12.data        21182934                       # Total bandwidth to/from this memory (bytes/s)
system.mem_ctrls.bw_total::cpu13.inst        47449773                       # Total bandwidth to/from this memory (bytes/s)
system.mem_ctrls.bw_total::cpu13.data        21182934                       # Total bandwidth to/from this memory (bytes/s)
system.mem_ctrls.bw_total::cpu14.inst        42365869                       # Total bandwidth to/from this memory (bytes/s)
system.mem_ctrls.bw_total::cpu14.data        18640982                       # Total bandwidth to/from this memory (bytes/s)
system.mem_ctrls.bw_total::cpu15.inst        43213186                       # Total bandwidth to/from this memory (bytes/s)
system.mem_ctrls.bw_total::cpu15.data        19488300                       # Total bandwidth to/from this memory (bytes/s)
system.mem_ctrls.bw_total::total           2402992089                       # Total bandwidth to/from this memory (bytes/s)
system.mem_ctrls.readReqs                        2733                       # Number of read requests accepted
system.mem_ctrls.writeReqs                        104                       # Number of write requests accepted
system.mem_ctrls.readBursts                      2733                       # Number of DRAM read bursts, including those serviced by the write queue
system.mem_ctrls.writeBursts                      104                       # Number of DRAM write bursts, including those merged in the write queue
system.mem_ctrls.bytesReadDRAM                 169728                       # Total number of bytes read from DRAM
system.mem_ctrls.bytesReadWrQ                    5184                       # Total number of bytes read from write queue
system.mem_ctrls.bytesWritten                    5376                       # Total number of bytes written to DRAM
system.mem_ctrls.bytesReadSys                  174912                       # Total read bytes from the system interface side
system.mem_ctrls.bytesWrittenSys                 6656                       # Total written bytes from the system interface side
system.mem_ctrls.servicedByWrQ                     81                       # Number of DRAM read bursts serviced by the write queue
system.mem_ctrls.mergedWrBursts                     2                       # Number of DRAM write bursts merged with an existing one
system.mem_ctrls.neitherReadNorWriteReqs           16                       # Number of requests that are neither read nor write
system.mem_ctrls.perBankRdBursts::0               265                       # Per bank write bursts
system.mem_ctrls.perBankRdBursts::1               606                       # Per bank write bursts
system.mem_ctrls.perBankRdBursts::2               318                       # Per bank write bursts
system.mem_ctrls.perBankRdBursts::3               309                       # Per bank write bursts
system.mem_ctrls.perBankRdBursts::4               210                       # Per bank write bursts
system.mem_ctrls.perBankRdBursts::5               210                       # Per bank write bursts
system.mem_ctrls.perBankRdBursts::6               277                       # Per bank write bursts
system.mem_ctrls.perBankRdBursts::7               172                       # Per bank write bursts
system.mem_ctrls.perBankRdBursts::8                27                       # Per bank write bursts
system.mem_ctrls.perBankRdBursts::9                10                       # Per bank write bursts
system.mem_ctrls.perBankRdBursts::10                0                       # Per bank write bursts
system.mem_ctrls.perBankRdBursts::11               14                       # Per bank write bursts
system.mem_ctrls.perBankRdBursts::12                9                       # Per bank write bursts
system.mem_ctrls.perBankRdBursts::13               38                       # Per bank write bursts
system.mem_ctrls.perBankRdBursts::14               41                       # Per bank write bursts
system.mem_ctrls.perBankRdBursts::15              146                       # Per bank write bursts
system.mem_ctrls.perBankWrBursts::0                 1                       # Per bank write bursts
system.mem_ctrls.perBankWrBursts::1                 2                       # Per bank write bursts
system.mem_ctrls.perBankWrBursts::2                 5                       # Per bank write bursts
system.mem_ctrls.perBankWrBursts::3                20                       # Per bank write bursts
system.mem_ctrls.perBankWrBursts::4                 2                       # Per bank write bursts
system.mem_ctrls.perBankWrBursts::5                 3                       # Per bank write bursts
system.mem_ctrls.perBankWrBursts::6                 0                       # Per bank write bursts
system.mem_ctrls.perBankWrBursts::7                24                       # Per bank write bursts
system.mem_ctrls.perBankWrBursts::8                 0                       # Per bank write bursts
system.mem_ctrls.perBankWrBursts::9                 0                       # Per bank write bursts
system.mem_ctrls.perBankWrBursts::10                0                       # Per bank write bursts
system.mem_ctrls.perBankWrBursts::11                0                       # Per bank write bursts
system.mem_ctrls.perBankWrBursts::12                0                       # Per bank write bursts
system.mem_ctrls.perBankWrBursts::13                0                       # Per bank write bursts
system.mem_ctrls.perBankWrBursts::14                0                       # Per bank write bursts
system.mem_ctrls.perBankWrBursts::15               27                       # Per bank write bursts
system.mem_ctrls.numRdRetry                         3                       # Number of times read queue was full causing retry
system.mem_ctrls.numWrRetry                         0                       # Number of times write queue was full causing retry
system.mem_ctrls.totGap                      75525000                       # Total gap between requests
system.mem_ctrls.readPktSize::0                     0                       # Read request sizes (log2)
system.mem_ctrls.readPktSize::1                     0                       # Read request sizes (log2)
system.mem_ctrls.readPktSize::2                     0                       # Read request sizes (log2)
system.mem_ctrls.readPktSize::3                     0                       # Read request sizes (log2)
system.mem_ctrls.readPktSize::4                     0                       # Read request sizes (log2)
system.mem_ctrls.readPktSize::5                     0                       # Read request sizes (log2)
system.mem_ctrls.readPktSize::6                  2733                       # Read request sizes (log2)
system.mem_ctrls.writePktSize::0                    0                       # Write request sizes (log2)
system.mem_ctrls.writePktSize::1                    0                       # Write request sizes (log2)
system.mem_ctrls.writePktSize::2                    0                       # Write request sizes (log2)
system.mem_ctrls.writePktSize::3                    0                       # Write request sizes (log2)
system.mem_ctrls.writePktSize::4                    0                       # Write request sizes (log2)
system.mem_ctrls.writePktSize::5                    0                       # Write request sizes (log2)
system.mem_ctrls.writePktSize::6                  104                       # Write request sizes (log2)
system.mem_ctrls.rdQLenPdf::0                     893                       # What read queue length does an incoming req see
system.mem_ctrls.rdQLenPdf::1                     585                       # What read queue length does an incoming req see
system.mem_ctrls.rdQLenPdf::2                     127                       # What read queue length does an incoming req see
system.mem_ctrls.rdQLenPdf::3                      66                       # What read queue length does an incoming req see
system.mem_ctrls.rdQLenPdf::4                      51                       # What read queue length does an incoming req see
system.mem_ctrls.rdQLenPdf::5                      39                       # What read queue length does an incoming req see
system.mem_ctrls.rdQLenPdf::6                      44                       # What read queue length does an incoming req see
system.mem_ctrls.rdQLenPdf::7                      49                       # What read queue length does an incoming req see
system.mem_ctrls.rdQLenPdf::8                      82                       # What read queue length does an incoming req see
system.mem_ctrls.rdQLenPdf::9                      80                       # What read queue length does an incoming req see
system.mem_ctrls.rdQLenPdf::10                     76                       # What read queue length does an incoming req see
system.mem_ctrls.rdQLenPdf::11                     64                       # What read queue length does an incoming req see
system.mem_ctrls.rdQLenPdf::12                     83                       # What read queue length does an incoming req see
system.mem_ctrls.rdQLenPdf::13                     51                       # What read queue length does an incoming req see
system.mem_ctrls.rdQLenPdf::14                     52                       # What read queue length does an incoming req see
system.mem_ctrls.rdQLenPdf::15                     48                       # What read queue length does an incoming req see
system.mem_ctrls.rdQLenPdf::16                     28                       # What read queue length does an incoming req see
system.mem_ctrls.rdQLenPdf::17                     23                       # What read queue length does an incoming req see
system.mem_ctrls.rdQLenPdf::18                     18                       # What read queue length does an incoming req see
system.mem_ctrls.rdQLenPdf::19                     18                       # What read queue length does an incoming req see
system.mem_ctrls.rdQLenPdf::20                     18                       # What read queue length does an incoming req see
system.mem_ctrls.rdQLenPdf::21                     18                       # What read queue length does an incoming req see
system.mem_ctrls.rdQLenPdf::22                     19                       # What read queue length does an incoming req see
system.mem_ctrls.rdQLenPdf::23                     21                       # What read queue length does an incoming req see
system.mem_ctrls.rdQLenPdf::24                     19                       # What read queue length does an incoming req see
system.mem_ctrls.rdQLenPdf::25                     20                       # What read queue length does an incoming req see
system.mem_ctrls.rdQLenPdf::26                      9                       # What read queue length does an incoming req see
system.mem_ctrls.rdQLenPdf::27                     10                       # What read queue length does an incoming req see
system.mem_ctrls.rdQLenPdf::28                     27                       # What read queue length does an incoming req see
system.mem_ctrls.rdQLenPdf::29                      6                       # What read queue length does an incoming req see
system.mem_ctrls.rdQLenPdf::30                      3                       # What read queue length does an incoming req see
system.mem_ctrls.rdQLenPdf::31                      5                       # What read queue length does an incoming req see
system.mem_ctrls.wrQLenPdf::0                       1                       # What write queue length does an incoming req see
system.mem_ctrls.wrQLenPdf::1                       1                       # What write queue length does an incoming req see
system.mem_ctrls.wrQLenPdf::2                       1                       # What write queue length does an incoming req see
system.mem_ctrls.wrQLenPdf::3                       1                       # What write queue length does an incoming req see
system.mem_ctrls.wrQLenPdf::4                       1                       # What write queue length does an incoming req see
system.mem_ctrls.wrQLenPdf::5                       1                       # What write queue length does an incoming req see
system.mem_ctrls.wrQLenPdf::6                       1                       # What write queue length does an incoming req see
system.mem_ctrls.wrQLenPdf::7                       1                       # What write queue length does an incoming req see
system.mem_ctrls.wrQLenPdf::8                       1                       # What write queue length does an incoming req see
system.mem_ctrls.wrQLenPdf::9                       1                       # What write queue length does an incoming req see
system.mem_ctrls.wrQLenPdf::10                      1                       # What write queue length does an incoming req see
system.mem_ctrls.wrQLenPdf::11                      1                       # What write queue length does an incoming req see
system.mem_ctrls.wrQLenPdf::12                      1                       # What write queue length does an incoming req see
system.mem_ctrls.wrQLenPdf::13                      1                       # What write queue length does an incoming req see
system.mem_ctrls.wrQLenPdf::14                      1                       # What write queue length does an incoming req see
system.mem_ctrls.wrQLenPdf::15                      2                       # What write queue length does an incoming req see
system.mem_ctrls.wrQLenPdf::16                      2                       # What write queue length does an incoming req see
system.mem_ctrls.wrQLenPdf::17                      4                       # What write queue length does an incoming req see
system.mem_ctrls.wrQLenPdf::18                      6                       # What write queue length does an incoming req see
system.mem_ctrls.wrQLenPdf::19                      5                       # What write queue length does an incoming req see
system.mem_ctrls.wrQLenPdf::20                      5                       # What write queue length does an incoming req see
system.mem_ctrls.wrQLenPdf::21                      6                       # What write queue length does an incoming req see
system.mem_ctrls.wrQLenPdf::22                      5                       # What write queue length does an incoming req see
system.mem_ctrls.wrQLenPdf::23                      5                       # What write queue length does an incoming req see
system.mem_ctrls.wrQLenPdf::24                      5                       # What write queue length does an incoming req see
system.mem_ctrls.wrQLenPdf::25                      5                       # What write queue length does an incoming req see
system.mem_ctrls.wrQLenPdf::26                      5                       # What write queue length does an incoming req see
system.mem_ctrls.wrQLenPdf::27                      5                       # What write queue length does an incoming req see
system.mem_ctrls.wrQLenPdf::28                      7                       # What write queue length does an incoming req see
system.mem_ctrls.wrQLenPdf::29                      5                       # What write queue length does an incoming req see
system.mem_ctrls.wrQLenPdf::30                      5                       # What write queue length does an incoming req see
system.mem_ctrls.wrQLenPdf::31                      5                       # What write queue length does an incoming req see
system.mem_ctrls.wrQLenPdf::32                      5                       # What write queue length does an incoming req see
system.mem_ctrls.wrQLenPdf::33                      0                       # What write queue length does an incoming req see
system.mem_ctrls.wrQLenPdf::34                      0                       # What write queue length does an incoming req see
system.mem_ctrls.wrQLenPdf::35                      0                       # What write queue length does an incoming req see
system.mem_ctrls.wrQLenPdf::36                      0                       # What write queue length does an incoming req see
system.mem_ctrls.wrQLenPdf::37                      0                       # What write queue length does an incoming req see
system.mem_ctrls.wrQLenPdf::38                      0                       # What write queue length does an incoming req see
system.mem_ctrls.wrQLenPdf::39                      0                       # What write queue length does an incoming req see
system.mem_ctrls.wrQLenPdf::40                      0                       # What write queue length does an incoming req see
system.mem_ctrls.wrQLenPdf::41                      0                       # What write queue length does an incoming req see
system.mem_ctrls.wrQLenPdf::42                      0                       # What write queue length does an incoming req see
system.mem_ctrls.wrQLenPdf::43                      0                       # What write queue length does an incoming req see
system.mem_ctrls.wrQLenPdf::44                      0                       # What write queue length does an incoming req see
system.mem_ctrls.wrQLenPdf::45                      0                       # What write queue length does an incoming req see
system.mem_ctrls.wrQLenPdf::46                      0                       # What write queue length does an incoming req see
system.mem_ctrls.wrQLenPdf::47                      0                       # What write queue length does an incoming req see
system.mem_ctrls.wrQLenPdf::48                      0                       # What write queue length does an incoming req see
system.mem_ctrls.wrQLenPdf::49                      0                       # What write queue length does an incoming req see
system.mem_ctrls.wrQLenPdf::50                      0                       # What write queue length does an incoming req see
system.mem_ctrls.wrQLenPdf::51                      0                       # What write queue length does an incoming req see
system.mem_ctrls.wrQLenPdf::52                      0                       # What write queue length does an incoming req see
system.mem_ctrls.wrQLenPdf::53                      0                       # What write queue length does an incoming req see
system.mem_ctrls.wrQLenPdf::54                      0                       # What write queue length does an incoming req see
system.mem_ctrls.wrQLenPdf::55                      0                       # What write queue length does an incoming req see
system.mem_ctrls.wrQLenPdf::56                      0                       # What write queue length does an incoming req see
system.mem_ctrls.wrQLenPdf::57                      0                       # What write queue length does an incoming req see
system.mem_ctrls.wrQLenPdf::58                      0                       # What write queue length does an incoming req see
system.mem_ctrls.wrQLenPdf::59                      0                       # What write queue length does an incoming req see
system.mem_ctrls.wrQLenPdf::60                      0                       # What write queue length does an incoming req see
system.mem_ctrls.wrQLenPdf::61                      0                       # What write queue length does an incoming req see
system.mem_ctrls.wrQLenPdf::62                      0                       # What write queue length does an incoming req see
system.mem_ctrls.wrQLenPdf::63                      0                       # What write queue length does an incoming req see
system.mem_ctrls.bytesPerActivate::samples          456                       # Bytes accessed per row activation
system.mem_ctrls.bytesPerActivate::mean    376.701754                       # Bytes accessed per row activation
system.mem_ctrls.bytesPerActivate::gmean   202.065924                       # Bytes accessed per row activation
system.mem_ctrls.bytesPerActivate::stdev   386.431221                       # Bytes accessed per row activation
system.mem_ctrls.bytesPerActivate::0-127          192     42.11%     42.11% # Bytes accessed per row activation
system.mem_ctrls.bytesPerActivate::128-255           66     14.47%     56.58% # Bytes accessed per row activation
system.mem_ctrls.bytesPerActivate::256-383           32      7.02%     63.60% # Bytes accessed per row activation
system.mem_ctrls.bytesPerActivate::384-511           24      5.26%     68.86% # Bytes accessed per row activation
system.mem_ctrls.bytesPerActivate::512-639           13      2.85%     71.71% # Bytes accessed per row activation
system.mem_ctrls.bytesPerActivate::640-767           12      2.63%     74.34% # Bytes accessed per row activation
system.mem_ctrls.bytesPerActivate::768-895           17      3.73%     78.07% # Bytes accessed per row activation
system.mem_ctrls.bytesPerActivate::896-1023            9      1.97%     80.04% # Bytes accessed per row activation
system.mem_ctrls.bytesPerActivate::1024-1151           91     19.96%    100.00% # Bytes accessed per row activation
system.mem_ctrls.bytesPerActivate::total          456                       # Bytes accessed per row activation
system.mem_ctrls.rdPerTurnAround::samples            5                       # Reads before turning the bus around for writes
system.mem_ctrls.rdPerTurnAround::mean     521.600000                       # Reads before turning the bus around for writes
system.mem_ctrls.rdPerTurnAround::gmean    235.168154                       # Reads before turning the bus around for writes
system.mem_ctrls.rdPerTurnAround::stdev    570.587680                       # Reads before turning the bus around for writes
system.mem_ctrls.rdPerTurnAround::0-63              2     40.00%     40.00% # Reads before turning the bus around for writes
system.mem_ctrls.rdPerTurnAround::192-255            1     20.00%     60.00% # Reads before turning the bus around for writes
system.mem_ctrls.rdPerTurnAround::1024-1087            1     20.00%     80.00% # Reads before turning the bus around for writes
system.mem_ctrls.rdPerTurnAround::1216-1279            1     20.00%    100.00% # Reads before turning the bus around for writes
system.mem_ctrls.rdPerTurnAround::total             5                       # Reads before turning the bus around for writes
system.mem_ctrls.wrPerTurnAround::samples            5                       # Writes before turning the bus around for reads
system.mem_ctrls.wrPerTurnAround::mean      16.800000                       # Writes before turning the bus around for reads
system.mem_ctrls.wrPerTurnAround::gmean     16.730233                       # Writes before turning the bus around for reads
system.mem_ctrls.wrPerTurnAround::stdev      1.788854                       # Writes before turning the bus around for reads
system.mem_ctrls.wrPerTurnAround::16                4     80.00%     80.00% # Writes before turning the bus around for reads
system.mem_ctrls.wrPerTurnAround::20                1     20.00%    100.00% # Writes before turning the bus around for reads
system.mem_ctrls.wrPerTurnAround::total             5                       # Writes before turning the bus around for reads
system.mem_ctrls.totQLat                     88245000                       # Total ticks spent queuing
system.mem_ctrls.totMemAccLat               137970000                       # Total ticks spent from burst creation until serviced by the DRAM
system.mem_ctrls.totBusLat                   13260000                       # Total ticks spent in databus transfers
system.mem_ctrls.avgQLat                     33274.89                       # Average queueing delay per DRAM burst
system.mem_ctrls.avgBusLat                    5000.00                       # Average bus latency per DRAM burst
system.mem_ctrls.avgMemAccLat                52024.89                       # Average memory access latency per DRAM burst
system.mem_ctrls.avgRdBW                      2247.09                       # Average DRAM read bandwidth in MiByte/s
system.mem_ctrls.avgWrBW                        71.17                       # Average achieved write bandwidth in MiByte/s
system.mem_ctrls.avgRdBWSys                   2315.72                       # Average system read bandwidth in MiByte/s
system.mem_ctrls.avgWrBWSys                     88.12                       # Average system write bandwidth in MiByte/s
system.mem_ctrls.peakBW                      12800.00                       # Theoretical peak bandwidth in MiByte/s
system.mem_ctrls.busUtil                        18.11                       # Data bus utilization in percentage
system.mem_ctrls.busUtilRead                    17.56                       # Data bus utilization in percentage for reads
system.mem_ctrls.busUtilWrite                    0.56                       # Data bus utilization in percentage for writes
system.mem_ctrls.avgRdQLen                       2.90                       # Average read queue length when enqueuing
system.mem_ctrls.avgWrQLen                      14.06                       # Average write queue length when enqueuing
system.mem_ctrls.readRowHits                     2197                       # Number of row buffer hits during reads
system.mem_ctrls.writeRowHits                      70                       # Number of row buffer hits during writes
system.mem_ctrls.readRowHitRate                 82.84                       # Row buffer hit rate for reads
system.mem_ctrls.writeRowHitRate                68.63                       # Row buffer hit rate for writes
system.mem_ctrls.avgGap                      26621.43                       # Average gap between requests
system.mem_ctrls.pageHitRate                    82.32                       # Row buffer hit rate, read and write combined
system.mem_ctrls_0.actEnergy                  3008880                       # Energy for activate commands per rank (pJ)
system.mem_ctrls_0.preEnergy                  1641750                       # Energy for precharge commands per rank (pJ)
system.mem_ctrls_0.readEnergy                17690400                       # Energy for read commands per rank (pJ)
system.mem_ctrls_0.writeEnergy                 265680                       # Energy for write commands per rank (pJ)
system.mem_ctrls_0.refreshEnergy              4577040                       # Energy for refresh commands per rank (pJ)
system.mem_ctrls_0.actBackEnergy             46576125                       # Energy for active background per rank (pJ)
system.mem_ctrls_0.preBackEnergy              1345500                       # Energy for precharge background per rank (pJ)
system.mem_ctrls_0.totalEnergy               75105375                       # Total energy per rank (pJ)
system.mem_ctrls_0.averagePower           1067.804653                       # Core power per rank (mW)
system.mem_ctrls_0.memoryStateTime::IDLE      1816250                       # Time in different power states
system.mem_ctrls_0.memoryStateTime::REF       2340000                       # Time in different power states
system.mem_ctrls_0.memoryStateTime::PRE_PDN            0                       # Time in different power states
system.mem_ctrls_0.memoryStateTime::ACT      66193750                       # Time in different power states
system.mem_ctrls_0.memoryStateTime::ACT_PDN            0                       # Time in different power states
system.mem_ctrls_1.actEnergy                   302400                       # Energy for activate commands per rank (pJ)
system.mem_ctrls_1.preEnergy                   165000                       # Energy for precharge commands per rank (pJ)
system.mem_ctrls_1.readEnergy                 1879800                       # Energy for read commands per rank (pJ)
system.mem_ctrls_1.writeEnergy                 174960                       # Energy for write commands per rank (pJ)
system.mem_ctrls_1.refreshEnergy              4577040                       # Energy for refresh commands per rank (pJ)
system.mem_ctrls_1.actBackEnergy             32907240                       # Energy for active background per rank (pJ)
system.mem_ctrls_1.preBackEnergy             13335750                       # Energy for precharge background per rank (pJ)
system.mem_ctrls_1.totalEnergy               53342190                       # Total energy per rank (pJ)
system.mem_ctrls_1.averagePower            758.388313                       # Core power per rank (mW)
system.mem_ctrls_1.memoryStateTime::IDLE     24380000                       # Time in different power states
system.mem_ctrls_1.memoryStateTime::REF       2340000                       # Time in different power states
system.mem_ctrls_1.memoryStateTime::PRE_PDN            0                       # Time in different power states
system.mem_ctrls_1.memoryStateTime::ACT      46021000                       # Time in different power states
system.mem_ctrls_1.memoryStateTime::ACT_PDN            0                       # Time in different power states
system.cpu00.branchPred.lookups                 23031                       # Number of BP lookups
system.cpu00.branchPred.condPredicted           20514                       # Number of conditional branches predicted
system.cpu00.branchPred.condIncorrect            1165                       # Number of conditional branches incorrect
system.cpu00.branchPred.BTBLookups              18216                       # Number of BTB lookups
system.cpu00.branchPred.BTBHits                 15042                       # Number of BTB hits
system.cpu00.branchPred.BTBCorrect                  0                       # Number of correct BTB predictions (this stat may not work properly.
system.cpu00.branchPred.BTBHitPct           82.575758                       # BTB Hit Percentage
system.cpu00.branchPred.usedRAS                  1030                       # Number of times the RAS was used to get a target.
system.cpu00.branchPred.RASInCorrect               15                       # Number of incorrect RAS predictions.
system.cpu_voltage_domain.voltage                   1                       # Voltage in Volts
system.cpu_clk_domain.clock                       500                       # Clock period in ticks
system.cpu00.dstage2_mmu.stage2_tlb.walker.walks            0                       # Table walker walks requested
system.cpu00.dstage2_mmu.stage2_tlb.walker.walkRequestOrigin_Requested::Data            0                       # Table walker requests started/completed, data/inst
system.cpu00.dstage2_mmu.stage2_tlb.walker.walkRequestOrigin_Requested::Inst            0                       # Table walker requests started/completed, data/inst
system.cpu00.dstage2_mmu.stage2_tlb.walker.walkRequestOrigin_Requested::total            0                       # Table walker requests started/completed, data/inst
system.cpu00.dstage2_mmu.stage2_tlb.walker.walkRequestOrigin_Completed::Data            0                       # Table walker requests started/completed, data/inst
system.cpu00.dstage2_mmu.stage2_tlb.walker.walkRequestOrigin_Completed::Inst            0                       # Table walker requests started/completed, data/inst
system.cpu00.dstage2_mmu.stage2_tlb.walker.walkRequestOrigin_Completed::total            0                       # Table walker requests started/completed, data/inst
system.cpu00.dstage2_mmu.stage2_tlb.walker.walkRequestOrigin::total            0                       # Table walker requests started/completed, data/inst
system.cpu00.dstage2_mmu.stage2_tlb.inst_hits            0                       # ITB inst hits
system.cpu00.dstage2_mmu.stage2_tlb.inst_misses            0                       # ITB inst misses
system.cpu00.dstage2_mmu.stage2_tlb.read_hits            0                       # DTB read hits
system.cpu00.dstage2_mmu.stage2_tlb.read_misses            0                       # DTB read misses
system.cpu00.dstage2_mmu.stage2_tlb.write_hits            0                       # DTB write hits
system.cpu00.dstage2_mmu.stage2_tlb.write_misses            0                       # DTB write misses
system.cpu00.dstage2_mmu.stage2_tlb.flush_tlb            0                       # Number of times complete TLB was flushed
system.cpu00.dstage2_mmu.stage2_tlb.flush_tlb_mva            0                       # Number of times TLB was flushed by MVA
system.cpu00.dstage2_mmu.stage2_tlb.flush_tlb_mva_asid            0                       # Number of times TLB was flushed by MVA & ASID
system.cpu00.dstage2_mmu.stage2_tlb.flush_tlb_asid            0                       # Number of times TLB was flushed by ASID
system.cpu00.dstage2_mmu.stage2_tlb.flush_entries            0                       # Number of entries that have been flushed from TLB
system.cpu00.dstage2_mmu.stage2_tlb.align_faults            0                       # Number of TLB faults due to alignment restrictions
system.cpu00.dstage2_mmu.stage2_tlb.prefetch_faults            0                       # Number of TLB faults due to prefetch
system.cpu00.dstage2_mmu.stage2_tlb.domain_faults            0                       # Number of TLB faults due to domain restrictions
system.cpu00.dstage2_mmu.stage2_tlb.perms_faults            0                       # Number of TLB faults due to permissions restrictions
system.cpu00.dstage2_mmu.stage2_tlb.read_accesses            0                       # DTB read accesses
system.cpu00.dstage2_mmu.stage2_tlb.write_accesses            0                       # DTB write accesses
system.cpu00.dstage2_mmu.stage2_tlb.inst_accesses            0                       # ITB inst accesses
system.cpu00.dstage2_mmu.stage2_tlb.hits            0                       # DTB hits
system.cpu00.dstage2_mmu.stage2_tlb.misses            0                       # DTB misses
system.cpu00.dstage2_mmu.stage2_tlb.accesses            0                       # DTB accesses
system.cpu00.dtb.walker.walks                       0                       # Table walker walks requested
system.cpu00.dtb.walker.walkRequestOrigin_Requested::Data            0                       # Table walker requests started/completed, data/inst
system.cpu00.dtb.walker.walkRequestOrigin_Requested::Inst            0                       # Table walker requests started/completed, data/inst
system.cpu00.dtb.walker.walkRequestOrigin_Requested::total            0                       # Table walker requests started/completed, data/inst
system.cpu00.dtb.walker.walkRequestOrigin_Completed::Data            0                       # Table walker requests started/completed, data/inst
system.cpu00.dtb.walker.walkRequestOrigin_Completed::Inst            0                       # Table walker requests started/completed, data/inst
system.cpu00.dtb.walker.walkRequestOrigin_Completed::total            0                       # Table walker requests started/completed, data/inst
system.cpu00.dtb.walker.walkRequestOrigin::total            0                       # Table walker requests started/completed, data/inst
system.cpu00.dtb.inst_hits                          0                       # ITB inst hits
system.cpu00.dtb.inst_misses                        0                       # ITB inst misses
system.cpu00.dtb.read_hits                          0                       # DTB read hits
system.cpu00.dtb.read_misses                        0                       # DTB read misses
system.cpu00.dtb.write_hits                         0                       # DTB write hits
system.cpu00.dtb.write_misses                       0                       # DTB write misses
system.cpu00.dtb.flush_tlb                          0                       # Number of times complete TLB was flushed
system.cpu00.dtb.flush_tlb_mva                      0                       # Number of times TLB was flushed by MVA
system.cpu00.dtb.flush_tlb_mva_asid                 0                       # Number of times TLB was flushed by MVA & ASID
system.cpu00.dtb.flush_tlb_asid                     0                       # Number of times TLB was flushed by ASID
system.cpu00.dtb.flush_entries                      0                       # Number of entries that have been flushed from TLB
system.cpu00.dtb.align_faults                       0                       # Number of TLB faults due to alignment restrictions
system.cpu00.dtb.prefetch_faults                    0                       # Number of TLB faults due to prefetch
system.cpu00.dtb.domain_faults                      0                       # Number of TLB faults due to domain restrictions
system.cpu00.dtb.perms_faults                       0                       # Number of TLB faults due to permissions restrictions
system.cpu00.dtb.read_accesses                      0                       # DTB read accesses
system.cpu00.dtb.write_accesses                     0                       # DTB write accesses
system.cpu00.dtb.inst_accesses                      0                       # ITB inst accesses
system.cpu00.dtb.hits                               0                       # DTB hits
system.cpu00.dtb.misses                             0                       # DTB misses
system.cpu00.dtb.accesses                           0                       # DTB accesses
system.cpu00.istage2_mmu.stage2_tlb.walker.walks            0                       # Table walker walks requested
system.cpu00.istage2_mmu.stage2_tlb.walker.walkRequestOrigin_Requested::Data            0                       # Table walker requests started/completed, data/inst
system.cpu00.istage2_mmu.stage2_tlb.walker.walkRequestOrigin_Requested::Inst            0                       # Table walker requests started/completed, data/inst
system.cpu00.istage2_mmu.stage2_tlb.walker.walkRequestOrigin_Requested::total            0                       # Table walker requests started/completed, data/inst
system.cpu00.istage2_mmu.stage2_tlb.walker.walkRequestOrigin_Completed::Data            0                       # Table walker requests started/completed, data/inst
system.cpu00.istage2_mmu.stage2_tlb.walker.walkRequestOrigin_Completed::Inst            0                       # Table walker requests started/completed, data/inst
system.cpu00.istage2_mmu.stage2_tlb.walker.walkRequestOrigin_Completed::total            0                       # Table walker requests started/completed, data/inst
system.cpu00.istage2_mmu.stage2_tlb.walker.walkRequestOrigin::total            0                       # Table walker requests started/completed, data/inst
system.cpu00.istage2_mmu.stage2_tlb.inst_hits            0                       # ITB inst hits
system.cpu00.istage2_mmu.stage2_tlb.inst_misses            0                       # ITB inst misses
system.cpu00.istage2_mmu.stage2_tlb.read_hits            0                       # DTB read hits
system.cpu00.istage2_mmu.stage2_tlb.read_misses            0                       # DTB read misses
system.cpu00.istage2_mmu.stage2_tlb.write_hits            0                       # DTB write hits
system.cpu00.istage2_mmu.stage2_tlb.write_misses            0                       # DTB write misses
system.cpu00.istage2_mmu.stage2_tlb.flush_tlb            0                       # Number of times complete TLB was flushed
system.cpu00.istage2_mmu.stage2_tlb.flush_tlb_mva            0                       # Number of times TLB was flushed by MVA
system.cpu00.istage2_mmu.stage2_tlb.flush_tlb_mva_asid            0                       # Number of times TLB was flushed by MVA & ASID
system.cpu00.istage2_mmu.stage2_tlb.flush_tlb_asid            0                       # Number of times TLB was flushed by ASID
system.cpu00.istage2_mmu.stage2_tlb.flush_entries            0                       # Number of entries that have been flushed from TLB
system.cpu00.istage2_mmu.stage2_tlb.align_faults            0                       # Number of TLB faults due to alignment restrictions
system.cpu00.istage2_mmu.stage2_tlb.prefetch_faults            0                       # Number of TLB faults due to prefetch
system.cpu00.istage2_mmu.stage2_tlb.domain_faults            0                       # Number of TLB faults due to domain restrictions
system.cpu00.istage2_mmu.stage2_tlb.perms_faults            0                       # Number of TLB faults due to permissions restrictions
system.cpu00.istage2_mmu.stage2_tlb.read_accesses            0                       # DTB read accesses
system.cpu00.istage2_mmu.stage2_tlb.write_accesses            0                       # DTB write accesses
system.cpu00.istage2_mmu.stage2_tlb.inst_accesses            0                       # ITB inst accesses
system.cpu00.istage2_mmu.stage2_tlb.hits            0                       # DTB hits
system.cpu00.istage2_mmu.stage2_tlb.misses            0                       # DTB misses
system.cpu00.istage2_mmu.stage2_tlb.accesses            0                       # DTB accesses
system.cpu00.itb.walker.walks                       0                       # Table walker walks requested
system.cpu00.itb.walker.walkRequestOrigin_Requested::Data            0                       # Table walker requests started/completed, data/inst
system.cpu00.itb.walker.walkRequestOrigin_Requested::Inst            0                       # Table walker requests started/completed, data/inst
system.cpu00.itb.walker.walkRequestOrigin_Requested::total            0                       # Table walker requests started/completed, data/inst
system.cpu00.itb.walker.walkRequestOrigin_Completed::Data            0                       # Table walker requests started/completed, data/inst
system.cpu00.itb.walker.walkRequestOrigin_Completed::Inst            0                       # Table walker requests started/completed, data/inst
system.cpu00.itb.walker.walkRequestOrigin_Completed::total            0                       # Table walker requests started/completed, data/inst
system.cpu00.itb.walker.walkRequestOrigin::total            0                       # Table walker requests started/completed, data/inst
system.cpu00.itb.inst_hits                          0                       # ITB inst hits
system.cpu00.itb.inst_misses                        0                       # ITB inst misses
system.cpu00.itb.read_hits                          0                       # DTB read hits
system.cpu00.itb.read_misses                        0                       # DTB read misses
system.cpu00.itb.write_hits                         0                       # DTB write hits
system.cpu00.itb.write_misses                       0                       # DTB write misses
system.cpu00.itb.flush_tlb                          0                       # Number of times complete TLB was flushed
system.cpu00.itb.flush_tlb_mva                      0                       # Number of times TLB was flushed by MVA
system.cpu00.itb.flush_tlb_mva_asid                 0                       # Number of times TLB was flushed by MVA & ASID
system.cpu00.itb.flush_tlb_asid                     0                       # Number of times TLB was flushed by ASID
system.cpu00.itb.flush_entries                      0                       # Number of entries that have been flushed from TLB
system.cpu00.itb.align_faults                       0                       # Number of TLB faults due to alignment restrictions
system.cpu00.itb.prefetch_faults                    0                       # Number of TLB faults due to prefetch
system.cpu00.itb.domain_faults                      0                       # Number of TLB faults due to domain restrictions
system.cpu00.itb.perms_faults                       0                       # Number of TLB faults due to permissions restrictions
system.cpu00.itb.read_accesses                      0                       # DTB read accesses
system.cpu00.itb.write_accesses                     0                       # DTB write accesses
system.cpu00.itb.inst_accesses                      0                       # ITB inst accesses
system.cpu00.itb.hits                               0                       # DTB hits
system.cpu00.itb.misses                             0                       # DTB misses
system.cpu00.itb.accesses                           0                       # DTB accesses
system.cpu00.workload.num_syscalls                918                       # Number of system calls
system.cpu00.numCycles                         151066                       # number of cpu cycles simulated
system.cpu00.numWorkItemsStarted                    0                       # number of work items this cpu started
system.cpu00.numWorkItemsCompleted                  0                       # number of work items this cpu completed
system.cpu00.fetch.icacheStallCycles            32204                       # Number of cycles fetch is stalled on an Icache miss
system.cpu00.fetch.Insts                       183202                       # Number of instructions fetch has processed
system.cpu00.fetch.Branches                     23031                       # Number of branches that fetch encountered
system.cpu00.fetch.predictedBranches            16072                       # Number of branches that fetch has predicted taken
system.cpu00.fetch.Cycles                       82085                       # Number of cycles fetch has run and was not squashing or blocked
system.cpu00.fetch.SquashCycles                  2547                       # Number of cycles fetch has spent squashing
system.cpu00.fetch.MiscStallCycles                  1                       # Number of cycles fetch has spent waiting on interrupts, or bad addresses, or out of MSHRs
system.cpu00.fetch.PendingTrapStallCycles            1                       # Number of stall cycles due to pending traps
system.cpu00.fetch.CacheLines                   19220                       # Number of cache lines fetched
system.cpu00.fetch.IcacheSquashes                 608                       # Number of outstanding Icache misses that were squashed
system.cpu00.fetch.rateDist::samples           115564                       # Number of instructions fetched each cycle (Total)
system.cpu00.fetch.rateDist::mean            1.745050                       # Number of instructions fetched each cycle (Total)
system.cpu00.fetch.rateDist::stdev           3.054931                       # Number of instructions fetched each cycle (Total)
system.cpu00.fetch.rateDist::underflows             0      0.00%      0.00% # Number of instructions fetched each cycle (Total)
system.cpu00.fetch.rateDist::0                  83296     72.08%     72.08% # Number of instructions fetched each cycle (Total)
system.cpu00.fetch.rateDist::1                   1727      1.49%     73.57% # Number of instructions fetched each cycle (Total)
system.cpu00.fetch.rateDist::2                   2727      2.36%     75.93% # Number of instructions fetched each cycle (Total)
system.cpu00.fetch.rateDist::3                    868      0.75%     76.68% # Number of instructions fetched each cycle (Total)
system.cpu00.fetch.rateDist::4                   2582      2.23%     78.92% # Number of instructions fetched each cycle (Total)
system.cpu00.fetch.rateDist::5                    794      0.69%     79.60% # Number of instructions fetched each cycle (Total)
system.cpu00.fetch.rateDist::6                   2500      2.16%     81.77% # Number of instructions fetched each cycle (Total)
system.cpu00.fetch.rateDist::7                   5978      5.17%     86.94% # Number of instructions fetched each cycle (Total)
system.cpu00.fetch.rateDist::8                  15092     13.06%    100.00% # Number of instructions fetched each cycle (Total)
system.cpu00.fetch.rateDist::overflows              0      0.00%    100.00% # Number of instructions fetched each cycle (Total)
system.cpu00.fetch.rateDist::min_value              0                       # Number of instructions fetched each cycle (Total)
system.cpu00.fetch.rateDist::max_value              8                       # Number of instructions fetched each cycle (Total)
system.cpu00.fetch.rateDist::total             115564                       # Number of instructions fetched each cycle (Total)
system.cpu00.fetch.branchRate                0.152457                       # Number of branch fetches per cycle
system.cpu00.fetch.rate                      1.212728                       # Number of inst fetches per cycle
system.cpu00.decode.IdleCycles                  28895                       # Number of cycles decode is idle
system.cpu00.decode.BlockedCycles               56411                       # Number of cycles decode is blocked
system.cpu00.decode.RunCycles                   27082                       # Number of cycles decode is running
system.cpu00.decode.UnblockCycles                2211                       # Number of cycles decode is unblocking
system.cpu00.decode.SquashCycles                  965                       # Number of cycles decode is squashing
system.cpu00.decode.BranchResolved               1057                       # Number of times decode resolved a branch
system.cpu00.decode.BranchMispred                 319                       # Number of times decode detected a branch misprediction
system.cpu00.decode.DecodedInsts               191997                       # Number of instructions handled by decode
system.cpu00.decode.SquashedInsts                1156                       # Number of squashed instructions handled by decode
system.cpu00.rename.SquashCycles                  965                       # Number of cycles rename is squashing
system.cpu00.rename.IdleCycles                  30514                       # Number of cycles rename is idle
system.cpu00.rename.BlockCycles                  5176                       # Number of cycles rename is blocking
system.cpu00.rename.serializeStallCycles        14527                       # count of cycles rename stalled for serializing inst
system.cpu00.rename.RunCycles                   27579                       # Number of cycles rename is running
system.cpu00.rename.UnblockCycles               36803                       # Number of cycles rename is unblocking
system.cpu00.rename.RenamedInsts               188486                       # Number of instructions processed by rename
system.cpu00.rename.ROBFullEvents                 132                       # Number of times rename has blocked due to ROB full
system.cpu00.rename.IQFullEvents                  307                       # Number of times rename has blocked due to IQ full
system.cpu00.rename.LQFullEvents                  370                       # Number of times rename has blocked due to LQ full
system.cpu00.rename.SQFullEvents                35348                       # Number of times rename has blocked due to SQ full
system.cpu00.rename.RenamedOperands            233117                       # Number of destination operands rename has renamed
system.cpu00.rename.RenameLookups              930312                       # Number of register rename lookups that rename has made
system.cpu00.rename.int_rename_lookups         288815                       # Number of integer rename lookups
system.cpu00.rename.fp_rename_lookups              22                       # Number of floating rename lookups
system.cpu00.rename.CommittedMaps              208256                       # Number of HB maps that are committed
system.cpu00.rename.UndoneMaps                  24861                       # Number of HB maps that are undone due to squashing
system.cpu00.rename.serializingInsts              184                       # count of serializing insts renamed
system.cpu00.rename.tempSerializingInsts          184                       # count of temporary serializing insts renamed
system.cpu00.rename.skidInsts                   12289                       # count of insts added to the skid buffer
system.cpu00.memDep0.insertedLoads              29249                       # Number of loads inserted to the mem dependence unit.
system.cpu00.memDep0.insertedStores             22702                       # Number of stores inserted to the mem dependence unit.
system.cpu00.memDep0.conflictingLoads             956                       # Number of conflicting loads.
system.cpu00.memDep0.conflictingStores            669                       # Number of conflicting stores.
system.cpu00.iq.iqInstsAdded                   183642                       # Number of instructions added to the IQ (excludes non-spec)
system.cpu00.iq.iqNonSpecInstsAdded               350                       # Number of non-speculative instructions added to the IQ
system.cpu00.iq.iqInstsIssued                  177296                       # Number of instructions issued
system.cpu00.iq.iqSquashedInstsIssued              68                       # Number of squashed instructions issued
system.cpu00.iq.iqSquashedInstsExamined         16324                       # Number of squashed instructions iterated over during squash; mainly for profiling
system.cpu00.iq.iqSquashedOperandsExamined        41467                       # Number of squashed operands that are examined and possibly removed from graph
system.cpu00.iq.iqSquashedNonSpecRemoved           93                       # Number of squashed non-spec instructions that were removed
system.cpu00.iq.issued_per_cycle::samples       115564                       # Number of insts issued each cycle
system.cpu00.iq.issued_per_cycle::mean       1.534180                       # Number of insts issued each cycle
system.cpu00.iq.issued_per_cycle::stdev      2.288726                       # Number of insts issued each cycle
system.cpu00.iq.issued_per_cycle::underflows            0      0.00%      0.00% # Number of insts issued each cycle
system.cpu00.iq.issued_per_cycle::0             66576     57.61%     57.61% # Number of insts issued each cycle
system.cpu00.iq.issued_per_cycle::1             10508      9.09%     66.70% # Number of insts issued each cycle
system.cpu00.iq.issued_per_cycle::2              5065      4.38%     71.09% # Number of insts issued each cycle
system.cpu00.iq.issued_per_cycle::3             12537     10.85%     81.93% # Number of insts issued each cycle
system.cpu00.iq.issued_per_cycle::4              8058      6.97%     88.91% # Number of insts issued each cycle
system.cpu00.iq.issued_per_cycle::5              2443      2.11%     91.02% # Number of insts issued each cycle
system.cpu00.iq.issued_per_cycle::6              2931      2.54%     93.56% # Number of insts issued each cycle
system.cpu00.iq.issued_per_cycle::7              2554      2.21%     95.77% # Number of insts issued each cycle
system.cpu00.iq.issued_per_cycle::8              4892      4.23%    100.00% # Number of insts issued each cycle
system.cpu00.iq.issued_per_cycle::overflows            0      0.00%    100.00% # Number of insts issued each cycle
system.cpu00.iq.issued_per_cycle::min_value            0                       # Number of insts issued each cycle
system.cpu00.iq.issued_per_cycle::max_value            8                       # Number of insts issued each cycle
system.cpu00.iq.issued_per_cycle::total        115564                       # Number of insts issued each cycle
system.cpu00.iq.fu_full::No_OpClass                 0      0.00%      0.00% # attempts to use FU when none available
system.cpu00.iq.fu_full::IntAlu                  1561     24.21%     24.21% # attempts to use FU when none available
system.cpu00.iq.fu_full::IntMult                 4347     67.43%     91.64% # attempts to use FU when none available
system.cpu00.iq.fu_full::IntDiv                     0      0.00%     91.64% # attempts to use FU when none available
system.cpu00.iq.fu_full::FloatAdd                   0      0.00%     91.64% # attempts to use FU when none available
system.cpu00.iq.fu_full::FloatCmp                   0      0.00%     91.64% # attempts to use FU when none available
system.cpu00.iq.fu_full::FloatCvt                   0      0.00%     91.64% # attempts to use FU when none available
system.cpu00.iq.fu_full::FloatMult                  0      0.00%     91.64% # attempts to use FU when none available
system.cpu00.iq.fu_full::FloatDiv                   0      0.00%     91.64% # attempts to use FU when none available
system.cpu00.iq.fu_full::FloatSqrt                  0      0.00%     91.64% # attempts to use FU when none available
system.cpu00.iq.fu_full::SimdAdd                    0      0.00%     91.64% # attempts to use FU when none available
system.cpu00.iq.fu_full::SimdAddAcc                 0      0.00%     91.64% # attempts to use FU when none available
system.cpu00.iq.fu_full::SimdAlu                    0      0.00%     91.64% # attempts to use FU when none available
system.cpu00.iq.fu_full::SimdCmp                    0      0.00%     91.64% # attempts to use FU when none available
system.cpu00.iq.fu_full::SimdCvt                    0      0.00%     91.64% # attempts to use FU when none available
system.cpu00.iq.fu_full::SimdMisc                   0      0.00%     91.64% # attempts to use FU when none available
system.cpu00.iq.fu_full::SimdMult                   0      0.00%     91.64% # attempts to use FU when none available
system.cpu00.iq.fu_full::SimdMultAcc                0      0.00%     91.64% # attempts to use FU when none available
system.cpu00.iq.fu_full::SimdShift                  0      0.00%     91.64% # attempts to use FU when none available
system.cpu00.iq.fu_full::SimdShiftAcc               0      0.00%     91.64% # attempts to use FU when none available
[...]
system.membus.pkt_count_system.cpu07.icache.mem_side::system.mem_ctrls.port          104                       # Packet count per connected master and slave (bytes)
system.membus.pkt_count_system.cpu07.dcache.mem_side::system.mem_ctrls.port          308                       # Packet count per connected master and slave (bytes)
system.membus.pkt_count_system.cpu08.icache.mem_side::system.mem_ctrls.port          104                       # Packet count per connected master and slave (bytes)
system.membus.pkt_count_system.cpu08.dcache.mem_side::system.mem_ctrls.port          308                       # Packet count per connected master and slave (bytes)
system.membus.pkt_count_system.cpu09.icache.mem_side::system.mem_ctrls.port          104                       # Packet count per connected master and slave (bytes)
system.membus.pkt_count_system.cpu09.dcache.mem_side::system.mem_ctrls.port          306                       # Packet count per connected master and slave (bytes)
system.membus.pkt_count_system.cpu10.icache.mem_side::system.mem_ctrls.port          106                       # Packet count per connected master and slave (bytes)
system.membus.pkt_count_system.cpu10.dcache.mem_side::system.mem_ctrls.port          302                       # Packet count per connected master and slave (bytes)
system.membus.pkt_count_system.cpu11.icache.mem_side::system.mem_ctrls.port          106                       # Packet count per connected master and slave (bytes)
system.membus.pkt_count_system.cpu11.dcache.mem_side::system.mem_ctrls.port          302                       # Packet count per connected master and slave (bytes)
system.membus.pkt_count_system.cpu12.icache.mem_side::system.mem_ctrls.port          108                       # Packet count per connected master and slave (bytes)
system.membus.pkt_count_system.cpu12.dcache.mem_side::system.mem_ctrls.port          298                       # Packet count per connected master and slave (bytes)
system.membus.pkt_count_system.cpu13.icache.mem_side::system.mem_ctrls.port          112                       # Packet count per connected master and slave (bytes)
system.membus.pkt_count_system.cpu13.dcache.mem_side::system.mem_ctrls.port          299                       # Packet count per connected master and slave (bytes)
system.membus.pkt_count_system.cpu14.icache.mem_side::system.mem_ctrls.port          100                       # Packet count per connected master and slave (bytes)
system.membus.pkt_count_system.cpu14.dcache.mem_side::system.mem_ctrls.port          302                       # Packet count per connected master and slave (bytes)
system.membus.pkt_count_system.cpu15.icache.mem_side::system.mem_ctrls.port          102                       # Packet count per connected master and slave (bytes)
system.membus.pkt_count_system.cpu15.dcache.mem_side::system.mem_ctrls.port          298                       # Packet count per connected master and slave (bytes)
system.membus.pkt_count::total                   9501                       # Packet count per connected master and slave (bytes)
system.membus.pkt_size_system.cpu00.icache.mem_side::system.mem_ctrls.port        38528                       # Cumulative packet size per connected master and slave (bytes)
system.membus.pkt_size_system.cpu00.dcache.mem_side::system.mem_ctrls.port        69952                       # Cumulative packet size per connected master and slave (bytes)
system.membus.pkt_size_system.cpu01.icache.mem_side::system.mem_ctrls.port         3264                       # Cumulative packet size per connected master and slave (bytes)
system.membus.pkt_size_system.cpu01.dcache.mem_side::system.mem_ctrls.port         1344                       # Cumulative packet size per connected master and slave (bytes)
system.membus.pkt_size_system.cpu02.icache.mem_side::system.mem_ctrls.port         3328                       # Cumulative packet size per connected master and slave (bytes)
system.membus.pkt_size_system.cpu02.dcache.mem_side::system.mem_ctrls.port         1408                       # Cumulative packet size per connected master and slave (bytes)
system.membus.pkt_size_system.cpu03.icache.mem_side::system.mem_ctrls.port         3328                       # Cumulative packet size per connected master and slave (bytes)
system.membus.pkt_size_system.cpu03.dcache.mem_side::system.mem_ctrls.port         1472                       # Cumulative packet size per connected master and slave (bytes)
system.membus.pkt_size_system.cpu04.icache.mem_side::system.mem_ctrls.port         3328                       # Cumulative packet size per connected master and slave (bytes)
system.membus.pkt_size_system.cpu04.dcache.mem_side::system.mem_ctrls.port         1408                       # Cumulative packet size per connected master and slave (bytes)
system.membus.pkt_size_system.cpu05.icache.mem_side::system.mem_ctrls.port         3328                       # Cumulative packet size per connected master and slave (bytes)
system.membus.pkt_size_system.cpu05.dcache.mem_side::system.mem_ctrls.port         1472                       # Cumulative packet size per connected master and slave (bytes)
system.membus.pkt_size_system.cpu06.icache.mem_side::system.mem_ctrls.port         3264                       # Cumulative packet size per connected master and slave (bytes)
system.membus.pkt_size_system.cpu06.dcache.mem_side::system.mem_ctrls.port         1472                       # Cumulative packet size per connected master and slave (bytes)
system.membus.pkt_size_system.cpu07.icache.mem_side::system.mem_ctrls.port         3328                       # Cumulative packet size per connected master and slave (bytes)
system.membus.pkt_size_system.cpu07.dcache.mem_side::system.mem_ctrls.port         1728                       # Cumulative packet size per connected master and slave (bytes)
system.membus.pkt_size_system.cpu08.icache.mem_side::system.mem_ctrls.port         3328                       # Cumulative packet size per connected master and slave (bytes)
system.membus.pkt_size_system.cpu08.dcache.mem_side::system.mem_ctrls.port         1792                       # Cumulative packet size per connected master and slave (bytes)
system.membus.pkt_size_system.cpu09.icache.mem_side::system.mem_ctrls.port         3328                       # Cumulative packet size per connected master and slave (bytes)
system.membus.pkt_size_system.cpu09.dcache.mem_side::system.mem_ctrls.port         1600                       # Cumulative packet size per connected master and slave (bytes)
system.membus.pkt_size_system.cpu10.icache.mem_side::system.mem_ctrls.port         3392                       # Cumulative packet size per connected master and slave (bytes)
system.membus.pkt_size_system.cpu10.dcache.mem_side::system.mem_ctrls.port         1472                       # Cumulative packet size per connected master and slave (bytes)
system.membus.pkt_size_system.cpu11.icache.mem_side::system.mem_ctrls.port         3392                       # Cumulative packet size per connected master and slave (bytes)
system.membus.pkt_size_system.cpu11.dcache.mem_side::system.mem_ctrls.port         1664                       # Cumulative packet size per connected master and slave (bytes)
system.membus.pkt_size_system.cpu12.icache.mem_side::system.mem_ctrls.port         3456                       # Cumulative packet size per connected master and slave (bytes)
system.membus.pkt_size_system.cpu12.dcache.mem_side::system.mem_ctrls.port         1600                       # Cumulative packet size per connected master and slave (bytes)
system.membus.pkt_size_system.cpu13.icache.mem_side::system.mem_ctrls.port         3584                       # Cumulative packet size per connected master and slave (bytes)
system.membus.pkt_size_system.cpu13.dcache.mem_side::system.mem_ctrls.port         1600                       # Cumulative packet size per connected master and slave (bytes)
system.membus.pkt_size_system.cpu14.icache.mem_side::system.mem_ctrls.port         3200                       # Cumulative packet size per connected master and slave (bytes)
system.membus.pkt_size_system.cpu14.dcache.mem_side::system.mem_ctrls.port         1408                       # Cumulative packet size per connected master and slave (bytes)
system.membus.pkt_size_system.cpu15.icache.mem_side::system.mem_ctrls.port         3264                       # Cumulative packet size per connected master and slave (bytes)
system.membus.pkt_size_system.cpu15.dcache.mem_side::system.mem_ctrls.port         1472                       # Cumulative packet size per connected master and slave (bytes)
system.membus.pkt_size::total                  181504                       # Cumulative packet size per connected master and slave (bytes)
system.membus.snoops                             3900                       # Total snoops (count)
system.membus.snoop_fanout::samples              6756                       # Request fanout histogram
system.membus.snoop_fanout::mean                   31                       # Request fanout histogram
system.membus.snoop_fanout::stdev                   0                       # Request fanout histogram
system.membus.snoop_fanout::underflows              0      0.00%      0.00% # Request fanout histogram
system.membus.snoop_fanout::0                       0      0.00%      0.00% # Request fanout histogram
system.membus.snoop_fanout::1                       0      0.00%      0.00% # Request fanout histogram
system.membus.snoop_fanout::2                       0      0.00%      0.00% # Request fanout histogram
system.membus.snoop_fanout::3                       0      0.00%      0.00% # Request fanout histogram
system.membus.snoop_fanout::4                       0      0.00%      0.00% # Request fanout histogram
system.membus.snoop_fanout::5                       0      0.00%      0.00% # Request fanout histogram
system.membus.snoop_fanout::6                       0      0.00%      0.00% # Request fanout histogram
system.membus.snoop_fanout::7                       0      0.00%      0.00% # Request fanout histogram
system.membus.snoop_fanout::8                       0      0.00%      0.00% # Request fanout histogram
system.membus.snoop_fanout::9                       0      0.00%      0.00% # Request fanout histogram
system.membus.snoop_fanout::10                      0      0.00%      0.00% # Request fanout histogram
system.membus.snoop_fanout::11                      0      0.00%      0.00% # Request fanout histogram
system.membus.snoop_fanout::12                      0      0.00%      0.00% # Request fanout histogram
system.membus.snoop_fanout::13                      0      0.00%      0.00% # Request fanout histogram
system.membus.snoop_fanout::14                      0      0.00%      0.00% # Request fanout histogram
system.membus.snoop_fanout::15                      0      0.00%      0.00% # Request fanout histogram
system.membus.snoop_fanout::16                      0      0.00%      0.00% # Request fanout histogram
system.membus.snoop_fanout::17                      0      0.00%      0.00% # Request fanout histogram
system.membus.snoop_fanout::18                      0      0.00%      0.00% # Request fanout histogram
system.membus.snoop_fanout::19                      0      0.00%      0.00% # Request fanout histogram
system.membus.snoop_fanout::20                      0      0.00%      0.00% # Request fanout histogram
system.membus.snoop_fanout::21                      0      0.00%      0.00% # Request fanout histogram
system.membus.snoop_fanout::22                      0      0.00%      0.00% # Request fanout histogram
system.membus.snoop_fanout::23                      0      0.00%      0.00% # Request fanout histogram
system.membus.snoop_fanout::24                      0      0.00%      0.00% # Request fanout histogram
system.membus.snoop_fanout::25                      0      0.00%      0.00% # Request fanout histogram
system.membus.snoop_fanout::26                      0      0.00%      0.00% # Request fanout histogram
system.membus.snoop_fanout::27                      0      0.00%      0.00% # Request fanout histogram
system.membus.snoop_fanout::28                      0      0.00%      0.00% # Request fanout histogram
system.membus.snoop_fanout::29                      0      0.00%      0.00% # Request fanout histogram
system.membus.snoop_fanout::30                      0      0.00%      0.00% # Request fanout histogram
system.membus.snoop_fanout::31                   6756    100.00%    100.00% # Request fanout histogram
system.membus.snoop_fanout::32                      0      0.00%    100.00% # Request fanout histogram
system.membus.snoop_fanout::overflows               0      0.00%    100.00% # Request fanout histogram
system.membus.snoop_fanout::min_value              31                       # Request fanout histogram
system.membus.snoop_fanout::max_value              31                       # Request fanout histogram
system.membus.snoop_fanout::total                6756                       # Request fanout histogram
system.membus.reqLayer0.occupancy             8045737                       # Layer occupancy (ticks)
system.membus.reqLayer0.utilization              10.7                       # Layer utilization (%)
system.membus.respLayer1.occupancy            3197000                       # Layer occupancy (ticks)
system.membus.respLayer1.utilization              4.2                       # Layer utilization (%)
system.membus.respLayer2.occupancy            5300239                       # Layer occupancy (ticks)
system.membus.respLayer2.utilization              7.0                       # Layer utilization (%)
system.membus.respLayer5.occupancy             272500                       # Layer occupancy (ticks)
system.membus.respLayer5.utilization              0.4                       # Layer utilization (%)
system.membus.respLayer6.occupancy            1547769                       # Layer occupancy (ticks)
system.membus.respLayer6.utilization              2.0                       # Layer utilization (%)
system.membus.respLayer9.occupancy             278750                       # Layer occupancy (ticks)
system.membus.respLayer9.utilization              0.4                       # Layer utilization (%)
system.membus.respLayer10.occupancy           1579279                       # Layer occupancy (ticks)
system.membus.respLayer10.utilization             2.1                       # Layer utilization (%)
system.membus.respLayer13.occupancy            274000                       # Layer occupancy (ticks)
system.membus.respLayer13.utilization             0.4                       # Layer utilization (%)
system.membus.respLayer14.occupancy           1574820                       # Layer occupancy (ticks)
system.membus.respLayer14.utilization             2.1                       # Layer utilization (%)
system.membus.respLayer17.occupancy            278000                       # Layer occupancy (ticks)
system.membus.respLayer17.utilization             0.4                       # Layer utilization (%)
system.membus.respLayer18.occupancy           1558869                       # Layer occupancy (ticks)
system.membus.respLayer18.utilization             2.1                       # Layer utilization (%)
system.membus.respLayer21.occupancy            277500                       # Layer occupancy (ticks)
system.membus.respLayer21.utilization             0.4                       # Layer utilization (%)
system.membus.respLayer22.occupancy           1471386                       # Layer occupancy (ticks)
system.membus.respLayer22.utilization             1.9                       # Layer utilization (%)
system.membus.respLayer25.occupancy            276250                       # Layer occupancy (ticks)
system.membus.respLayer25.utilization             0.4                       # Layer utilization (%)
system.membus.respLayer26.occupancy           1574046                       # Layer occupancy (ticks)
system.membus.respLayer26.utilization             2.1                       # Layer utilization (%)
system.membus.respLayer29.occupancy            278750                       # Layer occupancy (ticks)
system.membus.respLayer29.utilization             0.4                       # Layer utilization (%)
system.membus.respLayer30.occupancy           1468859                       # Layer occupancy (ticks)
system.membus.respLayer30.utilization             1.9                       # Layer utilization (%)
system.membus.respLayer33.occupancy            276000                       # Layer occupancy (ticks)
system.membus.respLayer33.utilization             0.4                       # Layer utilization (%)
system.membus.respLayer34.occupancy           1476363                       # Layer occupancy (ticks)
system.membus.respLayer34.utilization             2.0                       # Layer utilization (%)
system.membus.respLayer37.occupancy            278250                       # Layer occupancy (ticks)
system.membus.respLayer37.utilization             0.4                       # Layer utilization (%)
system.membus.respLayer38.occupancy           1476361                       # Layer occupancy (ticks)
system.membus.respLayer38.utilization             2.0                       # Layer utilization (%)
system.membus.respLayer41.occupancy            283500                       # Layer occupancy (ticks)
system.membus.respLayer41.utilization             0.4                       # Layer utilization (%)
system.membus.respLayer42.occupancy           1452882                       # Layer occupancy (ticks)
system.membus.respLayer42.utilization             1.9                       # Layer utilization (%)
system.membus.respLayer45.occupancy            283499                       # Layer occupancy (ticks)
system.membus.respLayer45.utilization             0.4                       # Layer utilization (%)
system.membus.respLayer46.occupancy           1442628                       # Layer occupancy (ticks)
system.membus.respLayer46.utilization             1.9                       # Layer utilization (%)
system.membus.respLayer49.occupancy            289998                       # Layer occupancy (ticks)
system.membus.respLayer49.utilization             0.4                       # Layer utilization (%)
system.membus.respLayer50.occupancy           1425613                       # Layer occupancy (ticks)
system.membus.respLayer50.utilization             1.9                       # Layer utilization (%)
system.membus.respLayer53.occupancy            301000                       # Layer occupancy (ticks)
system.membus.respLayer53.utilization             0.4                       # Layer utilization (%)
system.membus.respLayer54.occupancy           1430845                       # Layer occupancy (ticks)
system.membus.respLayer54.utilization             1.9                       # Layer utilization (%)
system.membus.respLayer57.occupancy            270499                       # Layer occupancy (ticks)
system.membus.respLayer57.utilization             0.4                       # Layer utilization (%)
system.membus.respLayer58.occupancy           1454874                       # Layer occupancy (ticks)
system.membus.respLayer58.utilization             1.9                       # Layer utilization (%)
system.membus.respLayer61.occupancy            271500                       # Layer occupancy (ticks)
system.membus.respLayer61.utilization             0.4                       # Layer utilization (%)
system.membus.respLayer62.occupancy           1422881                       # Layer occupancy (ticks)
system.membus.respLayer62.utilization             1.9                       # Layer utilization (%)

---------- End Simulation Statistics   ----------
