
---------- Begin Simulation Statistics ----------
sim_seconds                                  0.000107                       # Number of seconds simulated
sim_ticks                                   106933000                       # Number of ticks simulated
final_tick                                  106933000                       # Number of ticks from beginning of simulation (restored from checkpoints and never reset)
sim_freq                                 1000000000000                       # Frequency of simulated ticks
host_inst_rate                                 167596                       # Simulator instruction rate (inst/s)
host_op_rate                                   170779                       # Simulator op (including micro ops) rate (op/s)
host_tick_rate                               14075714                       # Simulator tick rate (ticks/s)
host_mem_usage                                 717132                       # Number of bytes of host memory used
host_seconds                                     7.60                       # Real time elapsed on the host
sim_insts                                     1273219                       # Number of instructions simulated
sim_ops                                       1297401                       # Number of ops (including micro ops) simulated
system.voltage_domain.voltage                       1                       # Voltage in Volts
system.clk_domain.clock                          1000                       # Clock period in ticks
system.mem_ctrls.bytes_read::cpu00.inst         36160                       # Number of bytes read from this memory
system.mem_ctrls.bytes_read::cpu00.data         61440                       # Number of bytes read from this memory
system.mem_ctrls.bytes_read::cpu01.inst          3072                       # Number of bytes read from this memory
system.mem_ctrls.bytes_read::cpu01.data          1152                       # Number of bytes read from this memory
system.mem_ctrls.bytes_read::cpu02.inst          3008                       # Number of bytes read from this memory
system.mem_ctrls.bytes_read::cpu02.data          1152                       # Number of bytes read from this memory
system.mem_ctrls.bytes_read::cpu03.inst          3008                       # Number of bytes read from this memory
system.mem_ctrls.bytes_read::cpu03.data          1216                       # Number of bytes read from this memory
system.mem_ctrls.bytes_read::cpu04.inst          3072                       # Number of bytes read from this memory
system.mem_ctrls.bytes_read::cpu04.data          1152                       # Number of bytes read from this memory
system.mem_ctrls.bytes_read::cpu05.inst          3072                       # Number of bytes read from this memory
system.mem_ctrls.bytes_read::cpu05.data          1216                       # Number of bytes read from this memory
system.mem_ctrls.bytes_read::cpu06.inst          2816                       # Number of bytes read from this memory
system.mem_ctrls.bytes_read::cpu06.data          1216                       # Number of bytes read from this memory
system.mem_ctrls.bytes_read::cpu07.inst          3008                       # Number of bytes read from this memory
system.mem_ctrls.bytes_read::cpu07.data          1536                       # Number of bytes read from this memory
system.mem_ctrls.bytes_read::cpu08.inst          3200                       # Number of bytes read from this memory
system.mem_ctrls.bytes_read::cpu08.data          1600                       # Number of bytes read from this memory
system.mem_ctrls.bytes_read::cpu09.inst          3264                       # Number of bytes read from this memory
system.mem_ctrls.bytes_read::cpu09.data          1472                       # Number of bytes read from this memory
system.mem_ctrls.bytes_read::cpu10.inst          3264                       # Number of bytes read from this memory
system.mem_ctrls.bytes_read::cpu10.data          1344                       # Number of bytes read from this memory
system.mem_ctrls.bytes_read::cpu11.inst          3264                       # Number of bytes read from this memory
system.mem_ctrls.bytes_read::cpu11.data          1408                       # Number of bytes read from this memory
system.mem_ctrls.bytes_read::cpu12.inst          3264                       # Number of bytes read from this memory
system.mem_ctrls.bytes_read::cpu12.data          1408                       # Number of bytes read from this memory
system.mem_ctrls.bytes_read::cpu13.inst          3328                       # Number of bytes read from this memory
system.mem_ctrls.bytes_read::cpu13.data          1408                       # Number of bytes read from this memory
system.mem_ctrls.bytes_read::cpu14.inst          3264                       # Number of bytes read from this memory
system.mem_ctrls.bytes_read::cpu14.data          1216                       # Number of bytes read from this memory
system.mem_ctrls.bytes_read::cpu15.inst          3328                       # Number of bytes read from this memory
system.mem_ctrls.bytes_read::cpu15.data          1344                       # Number of bytes read from this memory
system.mem_ctrls.bytes_read::total             164672                       # Number of bytes read from this memory
system.mem_ctrls.bytes_inst_read::cpu00.inst        36160                       # Number of instructions bytes read from this memory
system.mem_ctrls.bytes_inst_read::cpu01.inst         3072                       # Number of instructions bytes read from this memory
system.mem_ctrls.bytes_inst_read::cpu02.inst         3008                       # Number of instructions bytes read from this memory
system.mem_ctrls.bytes_inst_read::cpu03.inst         3008                       # Number of instructions bytes read from this memory
system.mem_ctrls.bytes_inst_read::cpu04.inst         3072                       # Number of instructions bytes read from this memory
system.mem_ctrls.bytes_inst_read::cpu05.inst         3072                       # Number of instructions bytes read from this memory
system.mem_ctrls.bytes_inst_read::cpu06.inst         2816                       # Number of instructions bytes read from this memory
system.mem_ctrls.bytes_inst_read::cpu07.inst         3008                       # Number of instructions bytes read from this memory
system.mem_ctrls.bytes_inst_read::cpu08.inst         3200                       # Number of instructions bytes read from this memory
system.mem_ctrls.bytes_inst_read::cpu09.inst         3264                       # Number of instructions bytes read from this memory
system.mem_ctrls.bytes_inst_read::cpu10.inst         3264                       # Number of instructions bytes read from this memory
system.mem_ctrls.bytes_inst_read::cpu11.inst         3264                       # Number of instructions bytes read from this memory
system.mem_ctrls.bytes_inst_read::cpu12.inst         3264                       # Number of instructions bytes read from this memory
system.mem_ctrls.bytes_inst_read::cpu13.inst         3328                       # Number of instructions bytes read from this memory
system.mem_ctrls.bytes_inst_read::cpu14.inst         3264                       # Number of instructions bytes read from this memory
system.mem_ctrls.bytes_inst_read::cpu15.inst         3328                       # Number of instructions bytes read from this memory
system.mem_ctrls.bytes_inst_read::total         83392                       # Number of instructions bytes read from this memory
system.mem_ctrls.bytes_written::writebacks         6272                       # Number of bytes written to this memory
system.mem_ctrls.bytes_written::total            6272                       # Number of bytes written to this memory
system.mem_ctrls.num_reads::cpu00.inst            565                       # Number of read requests responded to by this memory
system.mem_ctrls.num_reads::cpu00.data            960                       # Number of read requests responded to by this memory
system.mem_ctrls.num_reads::cpu01.inst             48                       # Number of read requests responded to by this memory
system.mem_ctrls.num_reads::cpu01.data             18                       # Number of read requests responded to by this memory
system.mem_ctrls.num_reads::cpu02.inst             47                       # Number of read requests responded to by this memory
system.mem_ctrls.num_reads::cpu02.data             18                       # Number of read requests responded to by this memory
system.mem_ctrls.num_reads::cpu03.inst             47                       # Number of read requests responded to by this memory
system.mem_ctrls.num_reads::cpu03.data             19                       # Number of read requests responded to by this memory
system.mem_ctrls.num_reads::cpu04.inst             48                       # Number of read requests responded to by this memory
system.mem_ctrls.num_reads::cpu04.data             18                       # Number of read requests responded to by this memory
system.mem_ctrls.num_reads::cpu05.inst             48                       # Number of read requests responded to by this memory
system.mem_ctrls.num_reads::cpu05.data             19                       # Number of read requests responded to by this memory
system.mem_ctrls.num_reads::cpu06.inst             44                       # Number of read requests responded to by this memory
system.mem_ctrls.num_reads::cpu06.data             19                       # Number of read requests responded to by this memory
system.mem_ctrls.num_reads::cpu07.inst             47                       # Number of read requests responded to by this memory
system.mem_ctrls.num_reads::cpu07.data             24                       # Number of read requests responded to by this memory
system.mem_ctrls.num_reads::cpu08.inst             50                       # Number of read requests responded to by this memory
system.mem_ctrls.num_reads::cpu08.data             25                       # Number of read requests responded to by this memory
system.mem_ctrls.num_reads::cpu09.inst             51                       # Number of read requests responded to by this memory
system.mem_ctrls.num_reads::cpu09.data             23                       # Number of read requests responded to by this memory
system.mem_ctrls.num_reads::cpu10.inst             51                       # Number of read requests responded to by this memory
system.mem_ctrls.num_reads::cpu10.data             21                       # Number of read requests responded to by this memory
system.mem_ctrls.num_reads::cpu11.inst             51                       # Number of read requests responded to by this memory
system.mem_ctrls.num_reads::cpu11.data             22                       # Number of read requests responded to by this memory
system.mem_ctrls.num_reads::cpu12.inst             51                       # Number of read requests responded to by this memory
system.mem_ctrls.num_reads::cpu12.data             22                       # Number of read requests responded to by this memory
system.mem_ctrls.num_reads::cpu13.inst             52                       # Number of read requests responded to by this memory
system.mem_ctrls.num_reads::cpu13.data             22                       # Number of read requests responded to by this memory
system.mem_ctrls.num_reads::cpu14.inst             51                       # Number of read requests responded to by this memory
system.mem_ctrls.num_reads::cpu14.data             19                       # Number of read requests responded to by this memory
system.mem_ctrls.num_reads::cpu15.inst             52                       # Number of read requests responded to by this memory
system.mem_ctrls.num_reads::cpu15.data             21                       # Number of read requests responded to by this memory
system.mem_ctrls.num_reads::total                2573                       # Number of read requests responded to by this memory
system.mem_ctrls.num_writes::writebacks            98                       # Number of write requests responded to by this memory
system.mem_ctrls.num_writes::total                 98                       # Number of write requests responded to by this memory
system.mem_ctrls.bw_read::cpu00.inst        338155668                       # Total read bandwidth from this memory (bytes/s)
system.mem_ctrls.bw_read::cpu00.data        574565382                       # Total read bandwidth from this memory (bytes/s)
system.mem_ctrls.bw_read::cpu01.inst         28728269                       # Total read bandwidth from this memory (bytes/s)
system.mem_ctrls.bw_read::cpu01.data         10773101                       # Total read bandwidth from this memory (bytes/s)
system.mem_ctrls.bw_read::cpu02.inst         28129763                       # Total read bandwidth from this memory (bytes/s)
system.mem_ctrls.bw_read::cpu02.data         10773101                       # Total read bandwidth from this memory (bytes/s)
system.mem_ctrls.bw_read::cpu03.inst         28129763                       # Total read bandwidth from this memory (bytes/s)
system.mem_ctrls.bw_read::cpu03.data         11371607                       # Total read bandwidth from this memory (bytes/s)
system.mem_ctrls.bw_read::cpu04.inst         28728269                       # Total read bandwidth from this memory (bytes/s)
system.mem_ctrls.bw_read::cpu04.data         10773101                       # Total read bandwidth from this memory (bytes/s)
system.mem_ctrls.bw_read::cpu05.inst         28728269                       # Total read bandwidth from this memory (bytes/s)
system.mem_ctrls.bw_read::cpu05.data         11371607                       # Total read bandwidth from this memory (bytes/s)
system.mem_ctrls.bw_read::cpu06.inst         26334247                       # Total read bandwidth from this memory (bytes/s)
system.mem_ctrls.bw_read::cpu06.data         11371607                       # Total read bandwidth from this memory (bytes/s)
system.mem_ctrls.bw_read::cpu07.inst         28129763                       # Total read bandwidth from this memory (bytes/s)
system.mem_ctrls.bw_read::cpu07.data         14364135                       # Total read bandwidth from this memory (bytes/s)
system.mem_ctrls.bw_read::cpu08.inst         29925280                       # Total read bandwidth from this memory (bytes/s)
system.mem_ctrls.bw_read::cpu08.data         14962640                       # Total read bandwidth from this memory (bytes/s)
system.mem_ctrls.bw_read::cpu09.inst         30523786                       # Total read bandwidth from this memory (bytes/s)
system.mem_ctrls.bw_read::cpu09.data         13765629                       # Total read bandwidth from this memory (bytes/s)
system.mem_ctrls.bw_read::cpu10.inst         30523786                       # Total read bandwidth from this memory (bytes/s)
system.mem_ctrls.bw_read::cpu10.data         12568618                       # Total read bandwidth from this memory (bytes/s)
system.mem_ctrls.bw_read::cpu11.inst         30523786                       # Total read bandwidth from this memory (bytes/s)
system.mem_ctrls.bw_read::cpu11.data         13167123                       # Total read bandwidth from this memory (bytes/s)
system.mem_ctrls.bw_read::cpu12.inst         30523786                       # Total read bandwidth from this memory (bytes/s)
system.mem_ctrls.bw_read::cpu12.data         13167123                       # Total read bandwidth from this memory (bytes/s)
system.mem_ctrls.bw_read::cpu13.inst         31122292                       # Total read bandwidth from this memory (bytes/s)
system.mem_ctrls.bw_read::cpu13.data         13167123                       # Total read bandwidth from this memory (bytes/s)
system.mem_ctrls.bw_read::cpu14.inst         30523786                       # Total read bandwidth from this memory (bytes/s)
system.mem_ctrls.bw_read::cpu14.data         11371607                       # Total read bandwidth from this memory (bytes/s)
system.mem_ctrls.bw_read::cpu15.inst         31122292                       # Total read bandwidth from this memory (bytes/s)
system.mem_ctrls.bw_read::cpu15.data         12568618                       # Total read bandwidth from this memory (bytes/s)
system.mem_ctrls.bw_read::total            1539954925                       # Total read bandwidth from this memory (bytes/s)
system.mem_ctrls.bw_inst_read::cpu00.inst    338155668                       # Instruction read bandwidth from this memory (bytes/s)
system.mem_ctrls.bw_inst_read::cpu01.inst     28728269                       # Instruction read bandwidth from this memory (bytes/s)
system.mem_ctrls.bw_inst_read::cpu02.inst     28129763                       # Instruction read bandwidth from this memory (bytes/s)
system.mem_ctrls.bw_inst_read::cpu03.inst     28129763                       # Instruction read bandwidth from this memory (bytes/s)
system.mem_ctrls.bw_inst_read::cpu04.inst     28728269                       # Instruction read bandwidth from this memory (bytes/s)
system.mem_ctrls.bw_inst_read::cpu05.inst     28728269                       # Instruction read bandwidth from this memory (bytes/s)
system.mem_ctrls.bw_inst_read::cpu06.inst     26334247                       # Instruction read bandwidth from this memory (bytes/s)
system.mem_ctrls.bw_inst_read::cpu07.inst     28129763                       # Instruction read bandwidth from this memory (bytes/s)
system.mem_ctrls.bw_inst_read::cpu08.inst     29925280                       # Instruction read bandwidth from this memory (bytes/s)
system.mem_ctrls.bw_inst_read::cpu09.inst     30523786                       # Instruction read bandwidth from this memory (bytes/s)
system.mem_ctrls.bw_inst_read::cpu10.inst     30523786                       # Instruction read bandwidth from this memory (bytes/s)
system.mem_ctrls.bw_inst_read::cpu11.inst     30523786                       # Instruction read bandwidth from this memory (bytes/s)
system.mem_ctrls.bw_inst_read::cpu12.inst     30523786                       # Instruction read bandwidth from this memory (bytes/s)
system.mem_ctrls.bw_inst_read::cpu13.inst     31122292                       # Instruction read bandwidth from this memory (bytes/s)
system.mem_ctrls.bw_inst_read::cpu14.inst     30523786                       # Instruction read bandwidth from this memory (bytes/s)
system.mem_ctrls.bw_inst_read::cpu15.inst     31122292                       # Instruction read bandwidth from this memory (bytes/s)
system.mem_ctrls.bw_inst_read::total        779852805                       # Instruction read bandwidth from this memory (bytes/s)
system.mem_ctrls.bw_write::writebacks        58653549                       # Write bandwidth from this memory (bytes/s)
system.mem_ctrls.bw_write::total             58653549                       # Write bandwidth from this memory (bytes/s)
system.mem_ctrls.bw_total::writebacks        58653549                       # Total bandwidth to/from this memory (bytes/s)
system.mem_ctrls.bw_total::cpu00.inst       338155668                       # Total bandwidth to/from this memory (bytes/s)
system.mem_ctrls.bw_total::cpu00.data       574565382                       # Total bandwidth to/from this memory (bytes/s)
system.mem_ctrls.bw_total::cpu01.inst        28728269                       # Total bandwidth to/from this memory (bytes/s)
system.mem_ctrls.bw_total::cpu01.data        10773101                       # Total bandwidth to/from this memory (bytes/s)
system.mem_ctrls.bw_total::cpu02.inst        28129763                       # Total bandwidth to/from this memory (bytes/s)
system.mem_ctrls.bw_total::cpu02.data        10773101                       # Total bandwidth to/from this memory (bytes/s)
system.mem_ctrls.bw_total::cpu03.inst        28129763                       # Total bandwidth to/from this memory (bytes/s)
system.mem_ctrls.bw_total::cpu03.data        11371607                       # Total bandwidth to/from this memory (bytes/s)
system.mem_ctrls.bw_total::cpu04.inst        28728269                       # Total bandwidth to/from this memory (bytes/s)
system.mem_ctrls.bw_total::cpu04.data        10773101                       # Total bandwidth to/from this memory (bytes/s)
system.mem_ctrls.bw_total::cpu05.inst        28728269                       # Total bandwidth to/from this memory (bytes/s)
system.mem_ctrls.bw_total::cpu05.data        11371607                       # Total bandwidth to/from this memory (bytes/s)
system.mem_ctrls.bw_total::cpu06.inst        26334247                       # Total bandwidth to/from this memory (bytes/s)
system.mem_ctrls.bw_total::cpu06.data        11371607                       # Total bandwidth to/from this memory (bytes/s)
system.mem_ctrls.bw_total::cpu07.inst        28129763                       # Total bandwidth to/from this memory (bytes/s)
system.mem_ctrls.bw_total::cpu07.data        14364135                       # Total bandwidth to/from this memory (bytes/s)
system.mem_ctrls.bw_total::cpu08.inst        29925280                       # Total bandwidth to/from this memory (bytes/s)
system.mem_ctrls.bw_total::cpu08.data        14962640                       # Total bandwidth to/from this memory (bytes/s)
system.mem_ctrls.bw_total::cpu09.inst        30523786                       # Total bandwidth to/from this memory (bytes/s)
system.mem_ctrls.bw_total::cpu09.data        13765629                       # Total bandwidth to/from this memory (bytes/s)
system.mem_ctrls.bw_total::cpu10.inst        30523786                       # Total bandwidth to/from this memory (bytes/s)
system.mem_ctrls.bw_total::cpu10.data        12568618                       # Total bandwidth to/from this memory (bytes/s)
system.mem_ctrls.bw_total::cpu11.inst        30523786                       # Total bandwidth to/from this memory (bytes/s)
system.mem_ctrls.bw_total::cpu11.data        13167123                       # Total bandwidth to/from this memory (bytes/s)
system.mem_ctrls.bw_total::cpu12.inst        30523786                       # Total bandwidth to/from this memory (bytes/s)
system.mem_ctrls.bw_total::cpu12.data        13167123                       # Total bandwidth to/from this memory (bytes/s)
system.mem_ctrls.bw_total::cpu13.inst        31122292                       # Total bandwidth to/from this memory (bytes/s)
system.mem_ctrls.bw_total::cpu13.data        13167123                       # Total bandwidth to/from this memory (bytes/s)
system.mem_ctrls.bw_total::cpu14.inst        30523786                       # Total bandwidth to/from this memory (bytes/s)
system.mem_ctrls.bw_total::cpu14.data        11371607                       # Total bandwidth to/from this memory (bytes/s)
system.mem_ctrls.bw_total::cpu15.inst        31122292                       # Total bandwidth to/from this memory (bytes/s)
system.mem_ctrls.bw_total::cpu15.data        12568618                       # Total bandwidth to/from this memory (bytes/s)
system.mem_ctrls.bw_total::total           1598608474                       # Total bandwidth to/from this memory (bytes/s)
system.mem_ctrls.readReqs                        2574                       # Number of read requests accepted
system.mem_ctrls.writeReqs                         98                       # Number of write requests accepted
system.mem_ctrls.readBursts                      2574                       # Number of DRAM read bursts, including those serviced by the write queue
system.mem_ctrls.writeBursts                       98                       # Number of DRAM write bursts, including those merged in the write queue
system.mem_ctrls.bytesReadDRAM                 160448                       # Total number of bytes read from DRAM
system.mem_ctrls.bytesReadWrQ                    4288                       # Total number of bytes read from write queue
system.mem_ctrls.bytesWritten                    4224                       # Total number of bytes written to DRAM
system.mem_ctrls.bytesReadSys                  164736                       # Total read bytes from the system interface side
system.mem_ctrls.bytesWrittenSys                 6272                       # Total written bytes from the system interface side
system.mem_ctrls.servicedByWrQ                     67                       # Number of DRAM read bursts serviced by the write queue
system.mem_ctrls.mergedWrBursts                     2                       # Number of DRAM write bursts merged with an existing one
system.mem_ctrls.neitherReadNorWriteReqs            2                       # Number of requests that are neither read nor write
system.mem_ctrls.perBankRdBursts::0               264                       # Per bank write bursts
system.mem_ctrls.perBankRdBursts::1               581                       # Per bank write bursts
system.mem_ctrls.perBankRdBursts::2               283                       # Per bank write bursts
system.mem_ctrls.perBankRdBursts::3               307                       # Per bank write bursts
system.mem_ctrls.perBankRdBursts::4               204                       # Per bank write bursts
system.mem_ctrls.perBankRdBursts::5               214                       # Per bank write bursts
system.mem_ctrls.perBankRdBursts::6               263                       # Per bank write bursts
system.mem_ctrls.perBankRdBursts::7               167                       # Per bank write bursts
system.mem_ctrls.perBankRdBursts::8                29                       # Per bank write bursts
system.mem_ctrls.perBankRdBursts::9                 8                       # Per bank write bursts
system.mem_ctrls.perBankRdBursts::10                0                       # Per bank write bursts
system.mem_ctrls.perBankRdBursts::11               13                       # Per bank write bursts
system.mem_ctrls.perBankRdBursts::12                8                       # Per bank write bursts
system.mem_ctrls.perBankRdBursts::13               33                       # Per bank write bursts
system.mem_ctrls.perBankRdBursts::14               10                       # Per bank write bursts
system.mem_ctrls.perBankRdBursts::15              123                       # Per bank write bursts
system.mem_ctrls.perBankWrBursts::0                 1                       # Per bank write bursts
system.mem_ctrls.perBankWrBursts::1                 0                       # Per bank write bursts
system.mem_ctrls.perBankWrBursts::2                 4                       # Per bank write bursts
system.mem_ctrls.perBankWrBursts::3                20                       # Per bank write bursts
system.mem_ctrls.perBankWrBursts::4                 1                       # Per bank write bursts
system.mem_ctrls.perBankWrBursts::5                 0                       # Per bank write bursts
system.mem_ctrls.perBankWrBursts::6                 0                       # Per bank write bursts
system.mem_ctrls.perBankWrBursts::7                13                       # Per bank write bursts
system.mem_ctrls.perBankWrBursts::8                 0                       # Per bank write bursts
system.mem_ctrls.perBankWrBursts::9                 0                       # Per bank write bursts
system.mem_ctrls.perBankWrBursts::10                0                       # Per bank write bursts
system.mem_ctrls.perBankWrBursts::11                0                       # Per bank write bursts
system.mem_ctrls.perBankWrBursts::12                0                       # Per bank write bursts
system.mem_ctrls.perBankWrBursts::13                0                       # Per bank write bursts
system.mem_ctrls.perBankWrBursts::14                0                       # Per bank write bursts
system.mem_ctrls.perBankWrBursts::15               27                       # Per bank write bursts
system.mem_ctrls.numRdRetry                        46                       # Number of times read queue was full causing retry
system.mem_ctrls.numWrRetry                         0                       # Number of times write queue was full causing retry
system.mem_ctrls.totGap                     106914000                       # Total gap between requests
system.mem_ctrls.readPktSize::0                     0                       # Read request sizes (log2)
system.mem_ctrls.readPktSize::1                     0                       # Read request sizes (log2)
system.mem_ctrls.readPktSize::2                     0                       # Read request sizes (log2)
system.mem_ctrls.readPktSize::3                     0                       # Read request sizes (log2)
system.mem_ctrls.readPktSize::4                     0                       # Read request sizes (log2)
system.mem_ctrls.readPktSize::5                     0                       # Read request sizes (log2)
system.mem_ctrls.readPktSize::6                  2574                       # Read request sizes (log2)
system.mem_ctrls.writePktSize::0                    0                       # Write request sizes (log2)
system.mem_ctrls.writePktSize::1                    0                       # Write request sizes (log2)
system.mem_ctrls.writePktSize::2                    0                       # Write request sizes (log2)
system.mem_ctrls.writePktSize::3                    0                       # Write request sizes (log2)
system.mem_ctrls.writePktSize::4                    0                       # Write request sizes (log2)
system.mem_ctrls.writePktSize::5                    0                       # Write request sizes (log2)
system.mem_ctrls.writePktSize::6                   98                       # Write request sizes (log2)
system.mem_ctrls.rdQLenPdf::0                    1169                       # What read queue length does an incoming req see
system.mem_ctrls.rdQLenPdf::1                     271                       # What read queue length does an incoming req see
system.mem_ctrls.rdQLenPdf::2                     113                       # What read queue length does an incoming req see
system.mem_ctrls.rdQLenPdf::3                      71                       # What read queue length does an incoming req see
system.mem_ctrls.rdQLenPdf::4                      55                       # What read queue length does an incoming req see
system.mem_ctrls.rdQLenPdf::5                      69                       # What read queue length does an incoming req see
system.mem_ctrls.rdQLenPdf::6                      80                       # What read queue length does an incoming req see
system.mem_ctrls.rdQLenPdf::7                      94                       # What read queue length does an incoming req see
system.mem_ctrls.rdQLenPdf::8                      72                       # What read queue length does an incoming req see
system.mem_ctrls.rdQLenPdf::9                      59                       # What read queue length does an incoming req see
system.mem_ctrls.rdQLenPdf::10                     63                       # What read queue length does an incoming req see
system.mem_ctrls.rdQLenPdf::11                     52                       # What read queue length does an incoming req see
system.mem_ctrls.rdQLenPdf::12                     38                       # What read queue length does an incoming req see
system.mem_ctrls.rdQLenPdf::13                     19                       # What read queue length does an incoming req see
system.mem_ctrls.rdQLenPdf::14                     16                       # What read queue length does an incoming req see
system.mem_ctrls.rdQLenPdf::15                     16                       # What read queue length does an incoming req see
system.mem_ctrls.rdQLenPdf::16                      7                       # What read queue length does an incoming req see
system.mem_ctrls.rdQLenPdf::17                     11                       # What read queue length does an incoming req see
system.mem_ctrls.rdQLenPdf::18                     17                       # What read queue length does an incoming req see
system.mem_ctrls.rdQLenPdf::19                     12                       # What read queue length does an incoming req see
system.mem_ctrls.rdQLenPdf::20                     12                       # What read queue length does an incoming req see
system.mem_ctrls.rdQLenPdf::21                      4                       # What read queue length does an incoming req see
system.mem_ctrls.rdQLenPdf::22                      7                       # What read queue length does an incoming req see
system.mem_ctrls.rdQLenPdf::23                     16                       # What read queue length does an incoming req see
system.mem_ctrls.rdQLenPdf::24                     20                       # What read queue length does an incoming req see
system.mem_ctrls.rdQLenPdf::25                     10                       # What read queue length does an incoming req see
system.mem_ctrls.rdQLenPdf::26                      9                       # What read queue length does an incoming req see
system.mem_ctrls.rdQLenPdf::27                     21                       # What read queue length does an incoming req see
system.mem_ctrls.rdQLenPdf::28                     24                       # What read queue length does an incoming req see
system.mem_ctrls.rdQLenPdf::29                     12                       # What read queue length does an incoming req see
system.mem_ctrls.rdQLenPdf::30                      7                       # What read queue length does an incoming req see
system.mem_ctrls.rdQLenPdf::31                     61                       # What read queue length does an incoming req see
system.mem_ctrls.wrQLenPdf::0                       1                       # What write queue length does an incoming req see
system.mem_ctrls.wrQLenPdf::1                       1                       # What write queue length does an incoming req see
system.mem_ctrls.wrQLenPdf::2                       1                       # What write queue length does an incoming req see
system.mem_ctrls.wrQLenPdf::3                       1                       # What write queue length does an incoming req see
system.mem_ctrls.wrQLenPdf::4                       1                       # What write queue length does an incoming req see
system.mem_ctrls.wrQLenPdf::5                       1                       # What write queue length does an incoming req see
system.mem_ctrls.wrQLenPdf::6                       1                       # What write queue length does an incoming req see
system.mem_ctrls.wrQLenPdf::7                       1                       # What write queue length does an incoming req see
system.mem_ctrls.wrQLenPdf::8                       1                       # What write queue length does an incoming req see
system.mem_ctrls.wrQLenPdf::9                       1                       # What write queue length does an incoming req see
system.mem_ctrls.wrQLenPdf::10                      1                       # What write queue length does an incoming req see
system.mem_ctrls.wrQLenPdf::11                      1                       # What write queue length does an incoming req see
system.mem_ctrls.wrQLenPdf::12                      1                       # What write queue length does an incoming req see
system.mem_ctrls.wrQLenPdf::13                      1                       # What write queue length does an incoming req see
system.mem_ctrls.wrQLenPdf::14                      1                       # What write queue length does an incoming req see
system.mem_ctrls.wrQLenPdf::15                      2                       # What write queue length does an incoming req see
system.mem_ctrls.wrQLenPdf::16                      2                       # What write queue length does an incoming req see
system.mem_ctrls.wrQLenPdf::17                      4                       # What write queue length does an incoming req see
system.mem_ctrls.wrQLenPdf::18                      5                       # What write queue length does an incoming req see
system.mem_ctrls.wrQLenPdf::19                      5                       # What write queue length does an incoming req see
system.mem_ctrls.wrQLenPdf::20                      5                       # What write queue length does an incoming req see
system.mem_ctrls.wrQLenPdf::21                      5                       # What write queue length does an incoming req see
system.mem_ctrls.wrQLenPdf::22                      5                       # What write queue length does an incoming req see
system.mem_ctrls.wrQLenPdf::23                      5                       # What write queue length does an incoming req see
system.mem_ctrls.wrQLenPdf::24                      5                       # What write queue length does an incoming req see
system.mem_ctrls.wrQLenPdf::25                      5                       # What write queue length does an incoming req see
system.mem_ctrls.wrQLenPdf::26                      5                       # What write queue length does an incoming req see
system.mem_ctrls.wrQLenPdf::27                      6                       # What write queue length does an incoming req see
system.mem_ctrls.wrQLenPdf::28                      5                       # What write queue length does an incoming req see
system.mem_ctrls.wrQLenPdf::29                      5                       # What write queue length does an incoming req see
system.mem_ctrls.wrQLenPdf::30                      4                       # What write queue length does an incoming req see
system.mem_ctrls.wrQLenPdf::31                      4                       # What write queue length does an incoming req see
system.mem_ctrls.wrQLenPdf::32                      4                       # What write queue length does an incoming req see
system.mem_ctrls.wrQLenPdf::33                      0                       # What write queue length does an incoming req see
system.mem_ctrls.wrQLenPdf::34                      0                       # What write queue length does an incoming req see
system.mem_ctrls.wrQLenPdf::35                      0                       # What write queue length does an incoming req see
system.mem_ctrls.wrQLenPdf::36                      0                       # What write queue length does an incoming req see
system.mem_ctrls.wrQLenPdf::37                      0                       # What write queue length does an incoming req see
system.mem_ctrls.wrQLenPdf::38                      0                       # What write queue length does an incoming req see
system.mem_ctrls.wrQLenPdf::39                      0                       # What write queue length does an incoming req see
system.mem_ctrls.wrQLenPdf::40                      0                       # What write queue length does an incoming req see
system.mem_ctrls.wrQLenPdf::41                      0                       # What write queue length does an incoming req see
system.mem_ctrls.wrQLenPdf::42                      0                       # What write queue length does an incoming req see
system.mem_ctrls.wrQLenPdf::43                      0                       # What write queue length does an incoming req see
system.mem_ctrls.wrQLenPdf::44                      0                       # What write queue length does an incoming req see
system.mem_ctrls.wrQLenPdf::45                      0                       # What write queue length does an incoming req see
system.mem_ctrls.wrQLenPdf::46                      0                       # What write queue length does an incoming req see
system.mem_ctrls.wrQLenPdf::47                      0                       # What write queue length does an incoming req see
system.mem_ctrls.wrQLenPdf::48                      0                       # What write queue length does an incoming req see
system.mem_ctrls.wrQLenPdf::49                      0                       # What write queue length does an incoming req see
system.mem_ctrls.wrQLenPdf::50                      0                       # What write queue length does an incoming req see
system.mem_ctrls.wrQLenPdf::51                      0                       # What write queue length does an incoming req see
system.mem_ctrls.wrQLenPdf::52                      0                       # What write queue length does an incoming req see
system.mem_ctrls.wrQLenPdf::53                      0                       # What write queue length does an incoming req see
system.mem_ctrls.wrQLenPdf::54                      0                       # What write queue length does an incoming req see
system.mem_ctrls.wrQLenPdf::55                      0                       # What write queue length does an incoming req see
system.mem_ctrls.wrQLenPdf::56                      0                       # What write queue length does an incoming req see
system.mem_ctrls.wrQLenPdf::57                      0                       # What write queue length does an incoming req see
system.mem_ctrls.wrQLenPdf::58                      0                       # What write queue length does an incoming req see
system.mem_ctrls.wrQLenPdf::59                      0                       # What write queue length does an incoming req see
system.mem_ctrls.wrQLenPdf::60                      0                       # What write queue length does an incoming req see
system.mem_ctrls.wrQLenPdf::61                      0                       # What write queue length does an incoming req see
system.mem_ctrls.wrQLenPdf::62                      0                       # What write queue length does an incoming req see
system.mem_ctrls.wrQLenPdf::63                      0                       # What write queue length does an incoming req see
system.mem_ctrls.bytesPerActivate::samples          441                       # Bytes accessed per row activation
system.mem_ctrls.bytesPerActivate::mean    369.487528                       # Bytes accessed per row activation
system.mem_ctrls.bytesPerActivate::gmean   197.726873                       # Bytes accessed per row activation
system.mem_ctrls.bytesPerActivate::stdev   387.755265                       # Bytes accessed per row activation
system.mem_ctrls.bytesPerActivate::0-127          185     41.95%     41.95% # Bytes accessed per row activation
system.mem_ctrls.bytesPerActivate::128-255           73     16.55%     58.50% # Bytes accessed per row activation
system.mem_ctrls.bytesPerActivate::256-383           31      7.03%     65.53% # Bytes accessed per row activation
system.mem_ctrls.bytesPerActivate::384-511           24      5.44%     70.98% # Bytes accessed per row activation
system.mem_ctrls.bytesPerActivate::512-639           10      2.27%     73.24% # Bytes accessed per row activation
system.mem_ctrls.bytesPerActivate::640-767            9      2.04%     75.28% # Bytes accessed per row activation
system.mem_ctrls.bytesPerActivate::768-895            8      1.81%     77.10% # Bytes accessed per row activation
system.mem_ctrls.bytesPerActivate::896-1023            8      1.81%     78.91% # Bytes accessed per row activation
system.mem_ctrls.bytesPerActivate::1024-1151           93     21.09%    100.00% # Bytes accessed per row activation
system.mem_ctrls.bytesPerActivate::total          441                       # Bytes accessed per row activation
system.mem_ctrls.rdPerTurnAround::samples            4                       # Reads before turning the bus around for writes
system.mem_ctrls.rdPerTurnAround::mean     377.250000                       # Reads before turning the bus around for writes
system.mem_ctrls.rdPerTurnAround::gmean    151.256185                       # Reads before turning the bus around for writes
system.mem_ctrls.rdPerTurnAround::stdev    570.549078                       # Reads before turning the bus around for writes
system.mem_ctrls.rdPerTurnAround::0-63              1     25.00%     25.00% # Reads before turning the bus around for writes
system.mem_ctrls.rdPerTurnAround::64-127            1     25.00%     50.00% # Reads before turning the bus around for writes
system.mem_ctrls.rdPerTurnAround::128-191            1     25.00%     75.00% # Reads before turning the bus around for writes
system.mem_ctrls.rdPerTurnAround::1216-1279            1     25.00%    100.00% # Reads before turning the bus around for writes
system.mem_ctrls.rdPerTurnAround::total             4                       # Reads before turning the bus around for writes
system.mem_ctrls.wrPerTurnAround::samples            4                       # Writes before turning the bus around for reads
system.mem_ctrls.wrPerTurnAround::mean      16.500000                       # Writes before turning the bus around for reads
system.mem_ctrls.wrPerTurnAround::gmean     16.478137                       # Writes before turning the bus around for reads
system.mem_ctrls.wrPerTurnAround::stdev             1                       # Writes before turning the bus around for reads
system.mem_ctrls.wrPerTurnAround::16                3     75.00%     75.00% # Writes before turning the bus around for reads
system.mem_ctrls.wrPerTurnAround::18                1     25.00%    100.00% # Writes before turning the bus around for reads
system.mem_ctrls.wrPerTurnAround::total             4                       # Writes before turning the bus around for reads
system.mem_ctrls.totQLat                     86378000                       # Total ticks spent queuing
system.mem_ctrls.totMemAccLat               133384250                       # Total ticks spent from burst creation until serviced by the DRAM
system.mem_ctrls.totBusLat                   12535000                       # Total ticks spent in databus transfers
system.mem_ctrls.avgQLat                     34454.73                       # Average queueing delay per DRAM burst
system.mem_ctrls.avgBusLat                    5000.00                       # Average bus latency per DRAM burst
system.mem_ctrls.avgMemAccLat                53204.73                       # Average memory access latency per DRAM burst
system.mem_ctrls.avgRdBW                      1500.45                       # Average DRAM read bandwidth in MiByte/s
system.mem_ctrls.avgWrBW                        39.50                       # Average achieved write bandwidth in MiByte/s
system.mem_ctrls.avgRdBWSys                   1540.55                       # Average system read bandwidth in MiByte/s
system.mem_ctrls.avgWrBWSys                     58.65                       # Average system write bandwidth in MiByte/s
system.mem_ctrls.peakBW                      12800.00                       # Theoretical peak bandwidth in MiByte/s
system.mem_ctrls.busUtil                        12.03                       # Data bus utilization in percentage
system.mem_ctrls.busUtilRead                    11.72                       # Data bus utilization in percentage for reads
system.mem_ctrls.busUtilWrite                    0.31                       # Data bus utilization in percentage for writes
system.mem_ctrls.avgRdQLen                       2.15                       # Average read queue length when enqueuing
system.mem_ctrls.avgWrQLen                      13.50                       # Average write queue length when enqueuing
system.mem_ctrls.readRowHits                     2071                       # Number of row buffer hits during reads
system.mem_ctrls.writeRowHits                      56                       # Number of row buffer hits during writes
system.mem_ctrls.readRowHitRate                 82.61                       # Row buffer hit rate for reads
system.mem_ctrls.writeRowHitRate                58.33                       # Row buffer hit rate for writes
system.mem_ctrls.avgGap                      40012.72                       # Average gap between requests
system.mem_ctrls.pageHitRate                    81.71                       # Row buffer hit rate, read and write combined
system.mem_ctrls_0.actEnergy                  2993760                       # Energy for activate commands per rank (pJ)
system.mem_ctrls_0.preEnergy                  1633500                       # Energy for precharge commands per rank (pJ)
system.mem_ctrls_0.readEnergy                16988400                       # Energy for read commands per rank (pJ)
system.mem_ctrls_0.writeEnergy                 252720                       # Energy for write commands per rank (pJ)
system.mem_ctrls_0.refreshEnergy              6611280                       # Energy for refresh commands per rank (pJ)
system.mem_ctrls_0.actBackEnergy             68510295                       # Energy for active background per rank (pJ)
system.mem_ctrls_0.preBackEnergy               810000                       # Energy for precharge background per rank (pJ)
system.mem_ctrls_0.totalEnergy               97799955                       # Total energy per rank (pJ)
system.mem_ctrls_0.averagePower            963.439570                       # Core power per rank (mW)
system.mem_ctrls_0.memoryStateTime::IDLE       838750                       # Time in different power states
system.mem_ctrls_0.memoryStateTime::REF       3380000                       # Time in different power states
system.mem_ctrls_0.memoryStateTime::PRE_PDN            0                       # Time in different power states
system.mem_ctrls_0.memoryStateTime::ACT      97306000                       # Time in different power states
system.mem_ctrls_0.memoryStateTime::ACT_PDN            0                       # Time in different power states
system.mem_ctrls_1.actEnergy                   302400                       # Energy for activate commands per rank (pJ)
system.mem_ctrls_1.preEnergy                   165000                       # Energy for precharge commands per rank (pJ)
system.mem_ctrls_1.readEnergy                 1731600                       # Energy for read commands per rank (pJ)
system.mem_ctrls_1.writeEnergy                 174960                       # Energy for write commands per rank (pJ)
system.mem_ctrls_1.refreshEnergy              6611280                       # Energy for refresh commands per rank (pJ)
system.mem_ctrls_1.actBackEnergy             38615220                       # Energy for active background per rank (pJ)
system.mem_ctrls_1.preBackEnergy             27007500                       # Energy for precharge background per rank (pJ)
system.mem_ctrls_1.totalEnergy               74607960                       # Total energy per rank (pJ)
system.mem_ctrls_1.averagePower            735.289231                       # Core power per rank (mW)
system.mem_ctrls_1.memoryStateTime::IDLE     45122000                       # Time in different power states
system.mem_ctrls_1.memoryStateTime::REF       3380000                       # Time in different power states
system.mem_ctrls_1.memoryStateTime::PRE_PDN            0                       # Time in different power states
system.mem_ctrls_1.memoryStateTime::ACT      53409000                       # Time in different power states
system.mem_ctrls_1.memoryStateTime::ACT_PDN            0                       # Time in different power states
system.cpu00.branchPred.lookups                 18065                       # Number of BP lookups
system.cpu00.branchPred.condPredicted           15692                       # Number of conditional branches predicted
system.cpu00.branchPred.condIncorrect            1434                       # Number of conditional branches incorrect
system.cpu00.branchPred.BTBLookups              12314                       # Number of BTB lookups
system.cpu00.branchPred.BTBHits                 11547                       # Number of BTB hits
system.cpu00.branchPred.BTBCorrect                  0                       # Number of correct BTB predictions (this stat may not work properly.
system.cpu00.branchPred.BTBHitPct           93.771317                       # BTB Hit Percentage
system.cpu00.branchPred.usedRAS                   817                       # Number of times the RAS was used to get a target.
system.cpu00.branchPred.RASInCorrect                6                       # Number of incorrect RAS predictions.
system.cpu_voltage_domain.voltage                   1                       # Voltage in Volts
system.cpu_clk_domain.clock                       500                       # Clock period in ticks
system.cpu00.dstage2_mmu.stage2_tlb.walker.walks            0                       # Table walker walks requested
system.cpu00.dstage2_mmu.stage2_tlb.walker.walkRequestOrigin_Requested::Data            0                       # Table walker requests started/completed, data/inst
system.cpu00.dstage2_mmu.stage2_tlb.walker.walkRequestOrigin_Requested::Inst            0                       # Table walker requests started/completed, data/inst
system.cpu00.dstage2_mmu.stage2_tlb.walker.walkRequestOrigin_Requested::total            0                       # Table walker requests started/completed, data/inst
system.cpu00.dstage2_mmu.stage2_tlb.walker.walkRequestOrigin_Completed::Data            0                       # Table walker requests started/completed, data/inst
system.cpu00.dstage2_mmu.stage2_tlb.walker.walkRequestOrigin_Completed::Inst            0                       # Table walker requests started/completed, data/inst
system.cpu00.dstage2_mmu.stage2_tlb.walker.walkRequestOrigin_Completed::total            0                       # Table walker requests started/completed, data/inst
system.cpu00.dstage2_mmu.stage2_tlb.walker.walkRequestOrigin::total            0                       # Table walker requests started/completed, data/inst
system.cpu00.dstage2_mmu.stage2_tlb.inst_hits            0                       # ITB inst hits
system.cpu00.dstage2_mmu.stage2_tlb.inst_misses            0                       # ITB inst misses
system.cpu00.dstage2_mmu.stage2_tlb.read_hits            0                       # DTB read hits
system.cpu00.dstage2_mmu.stage2_tlb.read_misses            0                       # DTB read misses
system.cpu00.dstage2_mmu.stage2_tlb.write_hits            0                       # DTB write hits
system.cpu00.dstage2_mmu.stage2_tlb.write_misses            0                       # DTB write misses
system.cpu00.dstage2_mmu.stage2_tlb.flush_tlb            0                       # Number of times complete TLB was flushed
system.cpu00.dstage2_mmu.stage2_tlb.flush_tlb_mva            0                       # Number of times TLB was flushed by MVA
system.cpu00.dstage2_mmu.stage2_tlb.flush_tlb_mva_asid            0                       # Number of times TLB was flushed by MVA & ASID
system.cpu00.dstage2_mmu.stage2_tlb.flush_tlb_asid            0                       # Number of times TLB was flushed by ASID
system.cpu00.dstage2_mmu.stage2_tlb.flush_entries            0                       # Number of entries that have been flushed from TLB
system.cpu00.dstage2_mmu.stage2_tlb.align_faults            0                       # Number of TLB faults due to alignment restrictions
system.cpu00.dstage2_mmu.stage2_tlb.prefetch_faults            0                       # Number of TLB faults due to prefetch
system.cpu00.dstage2_mmu.stage2_tlb.domain_faults            0                       # Number of TLB faults due to domain restrictions
system.cpu00.dstage2_mmu.stage2_tlb.perms_faults            0                       # Number of TLB faults due to permissions restrictions
system.cpu00.dstage2_mmu.stage2_tlb.read_accesses            0                       # DTB read accesses
system.cpu00.dstage2_mmu.stage2_tlb.write_accesses            0                       # DTB write accesses
system.cpu00.dstage2_mmu.stage2_tlb.inst_accesses            0                       # ITB inst accesses
system.cpu00.dstage2_mmu.stage2_tlb.hits            0                       # DTB hits
system.cpu00.dstage2_mmu.stage2_tlb.misses            0                       # DTB misses
system.cpu00.dstage2_mmu.stage2_tlb.accesses            0                       # DTB accesses
system.cpu00.dtb.walker.walks                       0                       # Table walker walks requested
system.cpu00.dtb.walker.walkRequestOrigin_Requested::Data            0                       # Table walker requests started/completed, data/inst
system.cpu00.dtb.walker.walkRequestOrigin_Requested::Inst            0                       # Table walker requests started/completed, data/inst
system.cpu00.dtb.walker.walkRequestOrigin_Requested::total            0                       # Table walker requests started/completed, data/inst
system.cpu00.dtb.walker.walkRequestOrigin_Completed::Data            0                       # Table walker requests started/completed, data/inst
system.cpu00.dtb.walker.walkRequestOrigin_Completed::Inst            0                       # Table walker requests started/completed, data/inst
system.cpu00.dtb.walker.walkRequestOrigin_Completed::total            0                       # Table walker requests started/completed, data/inst
system.cpu00.dtb.walker.walkRequestOrigin::total            0                       # Table walker requests started/completed, data/inst
system.cpu00.dtb.inst_hits                          0                       # ITB inst hits
system.cpu00.dtb.inst_misses                        0                       # ITB inst misses
system.cpu00.dtb.read_hits                          0                       # DTB read hits
system.cpu00.dtb.read_misses                        0                       # DTB read misses
system.cpu00.dtb.write_hits                         0                       # DTB write hits
system.cpu00.dtb.write_misses                       0                       # DTB write misses
system.cpu00.dtb.flush_tlb                          0                       # Number of times complete TLB was flushed
system.cpu00.dtb.flush_tlb_mva                      0                       # Number of times TLB was flushed by MVA
system.cpu00.dtb.flush_tlb_mva_asid                 0                       # Number of times TLB was flushed by MVA & ASID
system.cpu00.dtb.flush_tlb_asid                     0                       # Number of times TLB was flushed by ASID
system.cpu00.dtb.flush_entries                      0                       # Number of entries that have been flushed from TLB
system.cpu00.dtb.align_faults                       0                       # Number of TLB faults due to alignment restrictions
system.cpu00.dtb.prefetch_faults                    0                       # Number of TLB faults due to prefetch
system.cpu00.dtb.domain_faults                      0                       # Number of TLB faults due to domain restrictions
system.cpu00.dtb.perms_faults                       0                       # Number of TLB faults due to permissions restrictions
system.cpu00.dtb.read_accesses                      0                       # DTB read accesses
system.cpu00.dtb.write_accesses                     0                       # DTB write accesses
system.cpu00.dtb.inst_accesses                      0                       # ITB inst accesses
system.cpu00.dtb.hits                               0                       # DTB hits
system.cpu00.dtb.misses                             0                       # DTB misses
system.cpu00.dtb.accesses                           0                       # DTB accesses
system.cpu00.istage2_mmu.stage2_tlb.walker.walks            0                       # Table walker walks requested
system.cpu00.istage2_mmu.stage2_tlb.walker.walkRequestOrigin_Requested::Data            0                       # Table walker requests started/completed, data/inst
system.cpu00.istage2_mmu.stage2_tlb.walker.walkRequestOrigin_Requested::Inst            0                       # Table walker requests started/completed, data/inst
system.cpu00.istage2_mmu.stage2_tlb.walker.walkRequestOrigin_Requested::total            0                       # Table walker requests started/completed, data/inst
system.cpu00.istage2_mmu.stage2_tlb.walker.walkRequestOrigin_Completed::Data            0                       # Table walker requests started/completed, data/inst
system.cpu00.istage2_mmu.stage2_tlb.walker.walkRequestOrigin_Completed::Inst            0                       # Table walker requests started/completed, data/inst
system.cpu00.istage2_mmu.stage2_tlb.walker.walkRequestOrigin_Completed::total            0                       # Table walker requests started/completed, data/inst
system.cpu00.istage2_mmu.stage2_tlb.walker.walkRequestOrigin::total            0                       # Table walker requests started/completed, data/inst
system.cpu00.istage2_mmu.stage2_tlb.inst_hits            0                       # ITB inst hits
system.cpu00.istage2_mmu.stage2_tlb.inst_misses            0                       # ITB inst misses
system.cpu00.istage2_mmu.stage2_tlb.read_hits            0                       # DTB read hits
system.cpu00.istage2_mmu.stage2_tlb.read_misses            0                       # DTB read misses
system.cpu00.istage2_mmu.stage2_tlb.write_hits            0                       # DTB write hits
system.cpu00.istage2_mmu.stage2_tlb.write_misses            0                       # DTB write misses
system.cpu00.istage2_mmu.stage2_tlb.flush_tlb            0                       # Number of times complete TLB was flushed
system.cpu00.istage2_mmu.stage2_tlb.flush_tlb_mva            0                       # Number of times TLB was flushed by MVA
system.cpu00.istage2_mmu.stage2_tlb.flush_tlb_mva_asid            0                       # Number of times TLB was flushed by MVA & ASID
system.cpu00.istage2_mmu.stage2_tlb.flush_tlb_asid            0                       # Number of times TLB was flushed by ASID
system.cpu00.istage2_mmu.stage2_tlb.flush_entries            0                       # Number of entries that have been flushed from TLB
system.cpu00.istage2_mmu.stage2_tlb.align_faults            0                       # Number of TLB faults due to alignment restrictions
system.cpu00.istage2_mmu.stage2_tlb.prefetch_faults            0                       # Number of TLB faults due to prefetch
system.cpu00.istage2_mmu.stage2_tlb.domain_faults            0                       # Number of TLB faults due to domain restrictions
system.cpu00.istage2_mmu.stage2_tlb.perms_faults            0                       # Number of TLB faults due to permissions restrictions
system.cpu00.istage2_mmu.stage2_tlb.read_accesses            0                       # DTB read accesses
system.cpu00.istage2_mmu.stage2_tlb.write_accesses            0                       # DTB write accesses
system.cpu00.istage2_mmu.stage2_tlb.inst_accesses            0                       # ITB inst accesses
system.cpu00.istage2_mmu.stage2_tlb.hits            0                       # DTB hits
system.cpu00.istage2_mmu.stage2_tlb.misses            0                       # DTB misses
system.cpu00.istage2_mmu.stage2_tlb.accesses            0                       # DTB accesses
system.cpu00.itb.walker.walks                       0                       # Table walker walks requested
system.cpu00.itb.walker.walkRequestOrigin_Requested::Data            0                       # Table walker requests started/completed, data/inst
system.cpu00.itb.walker.walkRequestOrigin_Requested::Inst            0                       # Table walker requests started/completed, data/inst
system.cpu00.itb.walker.walkRequestOrigin_Requested::total            0                       # Table walker requests started/completed, data/inst
system.cpu00.itb.walker.walkRequestOrigin_Completed::Data            0                       # Table walker requests started/completed, data/inst
system.cpu00.itb.walker.walkRequestOrigin_Completed::Inst            0                       # Table walker requests started/completed, data/inst
system.cpu00.itb.walker.walkRequestOrigin_Completed::total            0                       # Table walker requests started/completed, data/inst
system.cpu00.itb.walker.walkRequestOrigin::total            0                       # Table walker requests started/completed, data/inst
system.cpu00.itb.inst_hits                          0                       # ITB inst hits
system.cpu00.itb.inst_misses                        0                       # ITB inst misses
system.cpu00.itb.read_hits                          0                       # DTB read hits
system.cpu00.itb.read_misses                        0                       # DTB read misses
system.cpu00.itb.write_hits                         0                       # DTB write hits
system.cpu00.itb.write_misses                       0                       # DTB write misses
system.cpu00.itb.flush_tlb                          0                       # Number of times complete TLB was flushed
system.cpu00.itb.flush_tlb_mva                      0                       # Number of times TLB was flushed by MVA
system.cpu00.itb.flush_tlb_mva_asid                 0                       # Number of times TLB was flushed by MVA & ASID
system.cpu00.itb.flush_tlb_asid                     0                       # Number of times TLB was flushed by ASID
system.cpu00.itb.flush_entries                      0                       # Number of entries that have been flushed from TLB
system.cpu00.itb.align_faults                       0                       # Number of TLB faults due to alignment restrictions
system.cpu00.itb.prefetch_faults                    0                       # Number of TLB faults due to prefetch
system.cpu00.itb.domain_faults                      0                       # Number of TLB faults due to domain restrictions
system.cpu00.itb.perms_faults                       0                       # Number of TLB faults due to permissions restrictions
system.cpu00.itb.read_accesses                      0                       # DTB read accesses
system.cpu00.itb.write_accesses                     0                       # DTB write accesses
system.cpu00.itb.inst_accesses                      0                       # ITB inst accesses
system.cpu00.itb.hits                               0                       # DTB hits
system.cpu00.itb.misses                             0                       # DTB misses
system.cpu00.itb.accesses                           0                       # DTB accesses
system.cpu00.workload.num_syscalls                318                       # Number of system calls
system.cpu00.numCycles                         213867                       # number of cpu cycles simulated
system.cpu00.numWorkItemsStarted                    0                       # number of work items this cpu started
system.cpu00.numWorkItemsCompleted                  0                       # number of work items this cpu completed
system.cpu00.fetch.icacheStallCycles            14676                       # Number of cycles fetch is stalled on an Icache miss
system.cpu00.fetch.Insts                       162583                       # Number of instructions fetch has processed
system.cpu00.fetch.Branches                     18065                       # Number of branches that fetch encountered
system.cpu00.fetch.predictedBranches            12364                       # Number of branches that fetch has predicted taken
system.cpu00.fetch.Cycles                      160309                       # Number of cycles fetch has run and was not squashing or blocked
system.cpu00.fetch.SquashCycles                  2986                       # Number of cycles fetch has spent squashing
system.cpu00.fetch.MiscStallCycles                301                       # Number of cycles fetch has spent waiting on interrupts, or bad addresses, or out of MSHRs
system.cpu00.fetch.PendingTrapStallCycles          108                       # Number of stall cycles due to pending traps
system.cpu00.fetch.IcacheWaitRetryStallCycles          418                       # Number of stall cycles due to full MSHR
system.cpu00.fetch.CacheLines                   47581                       # Number of cache lines fetched
system.cpu00.fetch.IcacheSquashes                 336                       # Number of outstanding Icache misses that were squashed
system.cpu00.fetch.rateDist::samples           177305                       # Number of instructions fetched each cycle (Total)
system.cpu00.fetch.rateDist::mean            1.018161                       # Number of instructions fetched each cycle (Total)
system.cpu00.fetch.rateDist::stdev           1.265466                       # Number of instructions fetched each cycle (Total)
system.cpu00.fetch.rateDist::underflows             0      0.00%      0.00% # Number of instructions fetched each cycle (Total)
system.cpu00.fetch.rateDist::0                  94613     53.36%     53.36% # Number of instructions fetched each cycle (Total)
system.cpu00.fetch.rateDist::1                  30633     17.28%     70.64% # Number of instructions fetched each cycle (Total)
system.cpu00.fetch.rateDist::2                   6285      3.54%     74.18% # Number of instructions fetched each cycle (Total)
system.cpu00.fetch.rateDist::3                  45774     25.82%    100.00% # Number of instructions fetched each cycle (Total)
system.cpu00.fetch.rateDist::overflows              0      0.00%    100.00% # Number of instructions fetched each cycle (Total)
system.cpu00.fetch.rateDist::min_value              0                       # Number of instructions fetched each cycle (Total)
system.cpu00.fetch.rateDist::max_value              3                       # Number of instructions fetched each cycle (Total)
system.cpu00.fetch.rateDist::total             177305                       # Number of instructions fetched each cycle (Total)
system.cpu00.fetch.branchRate                0.084468                       # Number of branch fetches per cycle
system.cpu00.fetch.rate                      0.760206                       # Number of inst fetches per cycle
system.cpu00.decode.IdleCycles                  14775                       # Number of cycles decode is idle
system.cpu00.decode.BlockedCycles               84698                       # Number of cycles decode is blocked
system.cpu00.decode.RunCycles                   73521                       # Number of cycles decode is running
system.cpu00.decode.UnblockCycles                3116                       # Number of cycles decode is unblocking
system.cpu00.decode.SquashCycles                 1195                       # Number of cycles decode is squashing
system.cpu00.decode.BranchResolved                938                       # Number of times decode resolved a branch
system.cpu00.decode.BranchMispred                 320                       # Number of times decode detected a branch misprediction
system.cpu00.decode.DecodedInsts               168572                       # Number of instructions handled by decode
system.cpu00.decode.SquashedInsts                5072                       # Number of squashed instructions handled by decode
system.cpu00.rename.SquashCycles                 1195                       # Number of cycles rename is squashing
system.cpu00.rename.IdleCycles                  19812                       # Number of cycles rename is idle
system.cpu00.rename.BlockCycles                  5969                       # Number of cycles rename is blocking
system.cpu00.rename.serializeStallCycles        10244                       # count of cycles rename stalled for serializing inst
system.cpu00.rename.RunCycles                   71551                       # Number of cycles rename is running
system.cpu00.rename.UnblockCycles               68534                       # Number of cycles rename is unblocking
system.cpu00.rename.RenamedInsts               164249                       # Number of instructions processed by rename
system.cpu00.rename.SquashedInsts                1898                       # Number of squashed instructions processed by rename
system.cpu00.rename.ROBFullEvents                 103                       # Number of times rename has blocked due to ROB full
system.cpu00.rename.IQFullEvents                   10                       # Number of times rename has blocked due to IQ full
system.cpu00.rename.LQFullEvents                    1                       # Number of times rename has blocked due to LQ full
system.cpu00.rename.SQFullEvents                67107                       # Number of times rename has blocked due to SQ full
system.cpu00.rename.RenamedOperands            194657                       # Number of destination operands rename has renamed
system.cpu00.rename.RenameLookups              815369                       # Number of register rename lookups that rename has made
system.cpu00.rename.int_rename_lookups         257702                       # Number of integer rename lookups
system.cpu00.rename.fp_rename_lookups              22                       # Number of floating rename lookups
system.cpu00.rename.CommittedMaps              182002                       # Number of HB maps that are committed
system.cpu00.rename.UndoneMaps                  12622                       # Number of HB maps that are undone due to squashing
system.cpu00.rename.serializingInsts              121                       # count of serializing insts renamed
system.cpu00.rename.tempSerializingInsts          118                       # count of temporary serializing insts renamed
system.cpu00.rename.skidInsts                    6835                       # count of insts added to the skid buffer
system.cpu00.memDep0.insertedLoads              25904                       # Number of loads inserted to the mem dependence unit.
system.cpu00.memDep0.insertedStores             21738                       # Number of stores inserted to the mem dependence unit.
system.cpu00.memDep0.conflictingLoads             229                       # Number of conflicting loads.
system.cpu00.memDep0.conflictingStores            123                       # Number of conflicting stores.
system.cpu00.iq.iqInstsAdded                   162185                       # Number of instructions added to the IQ (excludes non-spec)
system.cpu00.iq.iqNonSpecInstsAdded               245                       # Number of non-speculative instructions added to the IQ
system.cpu00.iq.iqInstsIssued                  158919                       # Number of instructions issued
system.cpu00.iq.iqSquashedInstsIssued             518                       # Number of squashed instructions issued
system.cpu00.iq.iqSquashedInstsExamined          9884                       # Number of squashed instructions iterated over during squash; mainly for profiling
system.cpu00.iq.iqSquashedOperandsExamined        24501                       # Number of squashed operands that are examined and possibly removed from graph
system.cpu00.iq.iqSquashedNonSpecRemoved           45                       # Number of squashed non-spec instructions that were removed
system.cpu00.iq.issued_per_cycle::samples       177305                       # Number of insts issued each cycle
system.cpu00.iq.issued_per_cycle::mean       0.896303                       # Number of insts issued each cycle
system.cpu00.iq.issued_per_cycle::stdev      1.210593                       # Number of insts issued each cycle
system.cpu00.iq.issued_per_cycle::underflows            0      0.00%      0.00% # Number of insts issued each cycle
system.cpu00.iq.issued_per_cycle::0            104445     58.91%     58.91% # Number of insts issued each cycle
system.cpu00.iq.issued_per_cycle::1             20212     11.40%     70.31% # Number of insts issued each cycle
system.cpu00.iq.issued_per_cycle::2             21447     12.10%     82.40% # Number of insts issued each cycle
system.cpu00.iq.issued_per_cycle::3             28994     16.35%     98.76% # Number of insts issued each cycle
system.cpu00.iq.issued_per_cycle::4              2204      1.24%    100.00% # Number of insts issued each cycle
system.cpu00.iq.issued_per_cycle::5                 3      0.00%    100.00% # Number of insts issued each cycle
system.cpu00.iq.issued_per_cycle::6                 0      0.00%    100.00% # Number of insts issued each cycle
system.cpu00.iq.issued_per_cycle::7                 0      0.00%    100.00% # Number of insts issued each cycle
system.cpu00.iq.issued_per_cycle::8                 0      0.00%    100.00% # Number of insts issued each cycle
system.cpu00.iq.issued_per_cycle::overflows            0      0.00%    100.00% # Number of insts issued each cycle
system.cpu00.iq.issued_per_cycle::min_value            0                       # Number of insts issued each cycle
system.cpu00.iq.issued_per_cycle::max_value            5                       # Number of insts issued each cycle
system.cpu00.iq.issued_per_cycle::total        177305                       # Number of insts issued each cycle
system.cpu00.iq.fu_full::No_OpClass                 0      0.00%      0.00% # attempts to use FU when none available
system.cpu00.iq.fu_full::IntAlu                  3647     15.19%     15.19% # attempts to use FU when none available
system.cpu00.iq.fu_full::IntMult                  235      0.98%     16.17% # attempts to use FU when none available
system.cpu00.iq.fu_full::IntDiv                     0      0.00%     16.17% # attempts to use FU when none available
system.cpu00.iq.fu_full::FloatAdd                   0      0.00%     16.17% # attempts to use FU when none available
system.cpu00.iq.fu_full::FloatCmp                   0      0.00%     16.17% # attempts to use FU when none available
system.cpu00.iq.fu_full::FloatCvt                   0      0.00%     16.17% # attempts to use FU when none available
system.cpu00.iq.fu_full::FloatMult                  0      0.00%     16.17% # attempts to use FU when none available
system.cpu00.iq.fu_full::FloatDiv                   0      0.00%     16.17% # attempts to use FU when none available
system.cpu00.iq.fu_full::FloatSqrt                  0      0.00%     16.17% # attempts to use FU when none available
system.cpu00.iq.fu_full::SimdAdd                    0      0.00%     16.17% # attempts to use FU when none available
system.cpu00.iq.fu_full::SimdAddAcc                 0      0.00%     16.17% # attempts to use FU when none available
system.cpu00.iq.fu_full::SimdAlu                    0      0.00%     16.17% # attempts to use FU when none available
system.cpu00.iq.fu_full::SimdCmp                    0      0.00%     16.17% # attempts to use FU when none available
system.cpu00.iq.fu_full::SimdCvt                    0      0.00%     16.17% # attempts to use FU when none available
system.cpu00.iq.fu_full::SimdMisc                   0      0.00%     16.17% # attempts to use FU when none available
system.cpu00.iq.fu_full::SimdMult                   0      0.00%     16.17% # attempts to use FU when none available
system.cpu00.iq.fu_full::SimdMultAcc                0      0.00%     16.17% # attempts to use FU when none available
system.cpu00.iq.fu_full::SimdShift                  0      0.00%     16.17% # attempts to use FU when none available
system.cpu00.iq.fu_full::SimdShiftAcc               0      0.00%     16.17% # attempts to use FU when none available
system.cpu00.iq.fu_full::SimdSqrt                   0      0.00%     16.17% # attempts to use FU when none available
system.cpu00.iq.fu_full::SimdFloatAdd               0      0.00%     16.17% # attempts to use FU when none available
system.cpu00.iq.fu_full::SimdFloatAlu               0      0.00%     16.17% # attempts to use FU when none available
system.cpu00.iq.fu_full::SimdFloatCmp               0      0.00%     16.17% # attempts to use FU when none available
[...]
system.membus.pkt_count_system.cpu07.icache.mem_side::system.mem_ctrls.port           94                       # Packet count per connected master and slave (bytes)
system.membus.pkt_count_system.cpu07.dcache.mem_side::system.mem_ctrls.port          293                       # Packet count per connected master and slave (bytes)
system.membus.pkt_count_system.cpu08.icache.mem_side::system.mem_ctrls.port          100                       # Packet count per connected master and slave (bytes)
system.membus.pkt_count_system.cpu08.dcache.mem_side::system.mem_ctrls.port          284                       # Packet count per connected master and slave (bytes)
system.membus.pkt_count_system.cpu09.icache.mem_side::system.mem_ctrls.port          102                       # Packet count per connected master and slave (bytes)
system.membus.pkt_count_system.cpu09.dcache.mem_side::system.mem_ctrls.port          282                       # Packet count per connected master and slave (bytes)
system.membus.pkt_count_system.cpu10.icache.mem_side::system.mem_ctrls.port          102                       # Packet count per connected master and slave (bytes)
system.membus.pkt_count_system.cpu10.dcache.mem_side::system.mem_ctrls.port          281                       # Packet count per connected master and slave (bytes)
system.membus.pkt_count_system.cpu11.icache.mem_side::system.mem_ctrls.port          102                       # Packet count per connected master and slave (bytes)
system.membus.pkt_count_system.cpu11.dcache.mem_side::system.mem_ctrls.port          282                       # Packet count per connected master and slave (bytes)
system.membus.pkt_count_system.cpu12.icache.mem_side::system.mem_ctrls.port          102                       # Packet count per connected master and slave (bytes)
system.membus.pkt_count_system.cpu12.dcache.mem_side::system.mem_ctrls.port          283                       # Packet count per connected master and slave (bytes)
system.membus.pkt_count_system.cpu13.icache.mem_side::system.mem_ctrls.port          104                       # Packet count per connected master and slave (bytes)
system.membus.pkt_count_system.cpu13.dcache.mem_side::system.mem_ctrls.port          284                       # Packet count per connected master and slave (bytes)
system.membus.pkt_count_system.cpu14.icache.mem_side::system.mem_ctrls.port          102                       # Packet count per connected master and slave (bytes)
system.membus.pkt_count_system.cpu14.dcache.mem_side::system.mem_ctrls.port          279                       # Packet count per connected master and slave (bytes)
system.membus.pkt_count_system.cpu15.icache.mem_side::system.mem_ctrls.port          104                       # Packet count per connected master and slave (bytes)
system.membus.pkt_count_system.cpu15.dcache.mem_side::system.mem_ctrls.port          281                       # Packet count per connected master and slave (bytes)
system.membus.pkt_count::total                   8907                       # Packet count per connected master and slave (bytes)
system.membus.pkt_size_system.cpu00.icache.mem_side::system.mem_ctrls.port        36160                       # Cumulative packet size per connected master and slave (bytes)
system.membus.pkt_size_system.cpu00.dcache.mem_side::system.mem_ctrls.port        67712                       # Cumulative packet size per connected master and slave (bytes)
system.membus.pkt_size_system.cpu01.icache.mem_side::system.mem_ctrls.port         3072                       # Cumulative packet size per connected master and slave (bytes)
system.membus.pkt_size_system.cpu01.dcache.mem_side::system.mem_ctrls.port         1152                       # Cumulative packet size per connected master and slave (bytes)
system.membus.pkt_size_system.cpu02.icache.mem_side::system.mem_ctrls.port         3008                       # Cumulative packet size per connected master and slave (bytes)
system.membus.pkt_size_system.cpu02.dcache.mem_side::system.mem_ctrls.port         1152                       # Cumulative packet size per connected master and slave (bytes)
system.membus.pkt_size_system.cpu03.icache.mem_side::system.mem_ctrls.port         3008                       # Cumulative packet size per connected master and slave (bytes)
system.membus.pkt_size_system.cpu03.dcache.mem_side::system.mem_ctrls.port         1216                       # Cumulative packet size per connected master and slave (bytes)
system.membus.pkt_size_system.cpu04.icache.mem_side::system.mem_ctrls.port         3072                       # Cumulative packet size per connected master and slave (bytes)
system.membus.pkt_size_system.cpu04.dcache.mem_side::system.mem_ctrls.port         1152                       # Cumulative packet size per connected master and slave (bytes)
system.membus.pkt_size_system.cpu05.icache.mem_side::system.mem_ctrls.port         3072                       # Cumulative packet size per connected master and slave (bytes)
system.membus.pkt_size_system.cpu05.dcache.mem_side::system.mem_ctrls.port         1216                       # Cumulative packet size per connected master and slave (bytes)
system.membus.pkt_size_system.cpu06.icache.mem_side::system.mem_ctrls.port         2816                       # Cumulative packet size per connected master and slave (bytes)
system.membus.pkt_size_system.cpu06.dcache.mem_side::system.mem_ctrls.port         1216                       # Cumulative packet size per connected master and slave (bytes)
system.membus.pkt_size_system.cpu07.icache.mem_side::system.mem_ctrls.port         3008                       # Cumulative packet size per connected master and slave (bytes)
system.membus.pkt_size_system.cpu07.dcache.mem_side::system.mem_ctrls.port         1536                       # Cumulative packet size per connected master and slave (bytes)
system.membus.pkt_size_system.cpu08.icache.mem_side::system.mem_ctrls.port         3200                       # Cumulative packet size per connected master and slave (bytes)
system.membus.pkt_size_system.cpu08.dcache.mem_side::system.mem_ctrls.port         1600                       # Cumulative packet size per connected master and slave (bytes)
system.membus.pkt_size_system.cpu09.icache.mem_side::system.mem_ctrls.port         3264                       # Cumulative packet size per connected master and slave (bytes)
system.membus.pkt_size_system.cpu09.dcache.mem_side::system.mem_ctrls.port         1472                       # Cumulative packet size per connected master and slave (bytes)
system.membus.pkt_size_system.cpu10.icache.mem_side::system.mem_ctrls.port         3264                       # Cumulative packet size per connected master and slave (bytes)
system.membus.pkt_size_system.cpu10.dcache.mem_side::system.mem_ctrls.port         1344                       # Cumulative packet size per connected master and slave (bytes)
system.membus.pkt_size_system.cpu11.icache.mem_side::system.mem_ctrls.port         3264                       # Cumulative packet size per connected master and slave (bytes)
system.membus.pkt_size_system.cpu11.dcache.mem_side::system.mem_ctrls.port         1408                       # Cumulative packet size per connected master and slave (bytes)
system.membus.pkt_size_system.cpu12.icache.mem_side::system.mem_ctrls.port         3264                       # Cumulative packet size per connected master and slave (bytes)
system.membus.pkt_size_system.cpu12.dcache.mem_side::system.mem_ctrls.port         1408                       # Cumulative packet size per connected master and slave (bytes)
system.membus.pkt_size_system.cpu13.icache.mem_side::system.mem_ctrls.port         3328                       # Cumulative packet size per connected master and slave (bytes)
system.membus.pkt_size_system.cpu13.dcache.mem_side::system.mem_ctrls.port         1408                       # Cumulative packet size per connected master and slave (bytes)
system.membus.pkt_size_system.cpu14.icache.mem_side::system.mem_ctrls.port         3264                       # Cumulative packet size per connected master and slave (bytes)
system.membus.pkt_size_system.cpu14.dcache.mem_side::system.mem_ctrls.port         1216                       # Cumulative packet size per connected master and slave (bytes)
system.membus.pkt_size_system.cpu15.icache.mem_side::system.mem_ctrls.port         3328                       # Cumulative packet size per connected master and slave (bytes)
system.membus.pkt_size_system.cpu15.dcache.mem_side::system.mem_ctrls.port         1344                       # Cumulative packet size per connected master and slave (bytes)
system.membus.pkt_size::total                  170944                       # Cumulative packet size per connected master and slave (bytes)
system.membus.snoops                             3658                       # Total snoops (count)
system.membus.snoop_fanout::samples              6378                       # Request fanout histogram
system.membus.snoop_fanout::mean                   31                       # Request fanout histogram
system.membus.snoop_fanout::stdev                   0                       # Request fanout histogram
system.membus.snoop_fanout::underflows              0      0.00%      0.00% # Request fanout histogram
system.membus.snoop_fanout::0                       0      0.00%      0.00% # Request fanout histogram
system.membus.snoop_fanout::1                       0      0.00%      0.00% # Request fanout histogram
system.membus.snoop_fanout::2                       0      0.00%      0.00% # Request fanout histogram
system.membus.snoop_fanout::3                       0      0.00%      0.00% # Request fanout histogram
system.membus.snoop_fanout::4                       0      0.00%      0.00% # Request fanout histogram
system.membus.snoop_fanout::5                       0      0.00%      0.00% # Request fanout histogram
system.membus.snoop_fanout::6                       0      0.00%      0.00% # Request fanout histogram
system.membus.snoop_fanout::7                       0      0.00%      0.00% # Request fanout histogram
system.membus.snoop_fanout::8                       0      0.00%      0.00% # Request fanout histogram
system.membus.snoop_fanout::9                       0      0.00%      0.00% # Request fanout histogram
system.membus.snoop_fanout::10                      0      0.00%      0.00% # Request fanout histogram
system.membus.snoop_fanout::11                      0      0.00%      0.00% # Request fanout histogram
system.membus.snoop_fanout::12                      0      0.00%      0.00% # Request fanout histogram
system.membus.snoop_fanout::13                      0      0.00%      0.00% # Request fanout histogram
system.membus.snoop_fanout::14                      0      0.00%      0.00% # Request fanout histogram
system.membus.snoop_fanout::15                      0      0.00%      0.00% # Request fanout histogram
system.membus.snoop_fanout::16                      0      0.00%      0.00% # Request fanout histogram
system.membus.snoop_fanout::17                      0      0.00%      0.00% # Request fanout histogram
system.membus.snoop_fanout::18                      0      0.00%      0.00% # Request fanout histogram
system.membus.snoop_fanout::19                      0      0.00%      0.00% # Request fanout histogram
system.membus.snoop_fanout::20                      0      0.00%      0.00% # Request fanout histogram
system.membus.snoop_fanout::21                      0      0.00%      0.00% # Request fanout histogram
system.membus.snoop_fanout::22                      0      0.00%      0.00% # Request fanout histogram
system.membus.snoop_fanout::23                      0      0.00%      0.00% # Request fanout histogram
system.membus.snoop_fanout::24                      0      0.00%      0.00% # Request fanout histogram
system.membus.snoop_fanout::25                      0      0.00%      0.00% # Request fanout histogram
system.membus.snoop_fanout::26                      0      0.00%      0.00% # Request fanout histogram
system.membus.snoop_fanout::27                      0      0.00%      0.00% # Request fanout histogram
system.membus.snoop_fanout::28                      0      0.00%      0.00% # Request fanout histogram
system.membus.snoop_fanout::29                      0      0.00%      0.00% # Request fanout histogram
system.membus.snoop_fanout::30                      0      0.00%      0.00% # Request fanout histogram
system.membus.snoop_fanout::31                   6378    100.00%    100.00% # Request fanout histogram
system.membus.snoop_fanout::32                      0      0.00%    100.00% # Request fanout histogram
system.membus.snoop_fanout::overflows               0      0.00%    100.00% # Request fanout histogram
system.membus.snoop_fanout::min_value              31                       # Request fanout histogram
system.membus.snoop_fanout::max_value              31                       # Request fanout histogram
system.membus.snoop_fanout::total                6378                       # Request fanout histogram
system.membus.reqLayer0.occupancy             7843999                       # Layer occupancy (ticks)
system.membus.reqLayer0.utilization               7.3                       # Layer utilization (%)
system.membus.respLayer1.occupancy            3009250                       # Layer occupancy (ticks)
system.membus.respLayer1.utilization              2.8                       # Layer utilization (%)
system.membus.respLayer2.occupancy            5115749                       # Layer occupancy (ticks)
system.membus.respLayer2.utilization              4.8                       # Layer utilization (%)
system.membus.respLayer5.occupancy             260250                       # Layer occupancy (ticks)
system.membus.respLayer5.utilization              0.2                       # Layer utilization (%)
system.membus.respLayer6.occupancy            1425628                       # Layer occupancy (ticks)
system.membus.respLayer6.utilization              1.3                       # Layer utilization (%)
system.membus.respLayer9.occupancy             256750                       # Layer occupancy (ticks)
system.membus.respLayer9.utilization              0.2                       # Layer utilization (%)
system.membus.respLayer10.occupancy           1430068                       # Layer occupancy (ticks)
system.membus.respLayer10.utilization             1.3                       # Layer utilization (%)
system.membus.respLayer13.occupancy            253000                       # Layer occupancy (ticks)
system.membus.respLayer13.utilization             0.2                       # Layer utilization (%)
system.membus.respLayer14.occupancy           1421347                       # Layer occupancy (ticks)
system.membus.respLayer14.utilization             1.3                       # Layer utilization (%)
system.membus.respLayer17.occupancy            260000                       # Layer occupancy (ticks)
system.membus.respLayer17.utilization             0.2                       # Layer utilization (%)
system.membus.respLayer18.occupancy           1401654                       # Layer occupancy (ticks)
system.membus.respLayer18.utilization             1.3                       # Layer utilization (%)
system.membus.respLayer21.occupancy            257250                       # Layer occupancy (ticks)
system.membus.respLayer21.utilization             0.2                       # Layer utilization (%)
system.membus.respLayer22.occupancy           1400416                       # Layer occupancy (ticks)
system.membus.respLayer22.utilization             1.3                       # Layer utilization (%)
system.membus.respLayer25.occupancy            238750                       # Layer occupancy (ticks)
system.membus.respLayer25.utilization             0.2                       # Layer utilization (%)
system.membus.respLayer26.occupancy           1423787                       # Layer occupancy (ticks)
system.membus.respLayer26.utilization             1.3                       # Layer utilization (%)
system.membus.respLayer29.occupancy            251000                       # Layer occupancy (ticks)
system.membus.respLayer29.utilization             0.2                       # Layer utilization (%)
system.membus.respLayer30.occupancy           1417616                       # Layer occupancy (ticks)
system.membus.respLayer30.utilization             1.3                       # Layer utilization (%)
system.membus.respLayer33.occupancy            265750                       # Layer occupancy (ticks)
system.membus.respLayer33.utilization             0.2                       # Layer utilization (%)
system.membus.respLayer34.occupancy           1378823                       # Layer occupancy (ticks)
system.membus.respLayer34.utilization             1.3                       # Layer utilization (%)
system.membus.respLayer37.occupancy            270750                       # Layer occupancy (ticks)
system.membus.respLayer37.utilization             0.3                       # Layer utilization (%)
system.membus.respLayer38.occupancy           1392016                       # Layer occupancy (ticks)
system.membus.respLayer38.utilization             1.3                       # Layer utilization (%)
system.membus.respLayer41.occupancy            275500                       # Layer occupancy (ticks)
system.membus.respLayer41.utilization             0.3                       # Layer utilization (%)
system.membus.respLayer42.occupancy           1379040                       # Layer occupancy (ticks)
system.membus.respLayer42.utilization             1.3                       # Layer utilization (%)
system.membus.respLayer45.occupancy            273250                       # Layer occupancy (ticks)
system.membus.respLayer45.utilization             0.3                       # Layer utilization (%)
system.membus.respLayer46.occupancy           1395019                       # Layer occupancy (ticks)
system.membus.respLayer46.utilization             1.3                       # Layer utilization (%)
system.membus.respLayer49.occupancy            273250                       # Layer occupancy (ticks)
system.membus.respLayer49.utilization             0.3                       # Layer utilization (%)
system.membus.respLayer50.occupancy           1369106                       # Layer occupancy (ticks)
system.membus.respLayer50.utilization             1.3                       # Layer utilization (%)
system.membus.respLayer53.occupancy            279750                       # Layer occupancy (ticks)
system.membus.respLayer53.utilization             0.3                       # Layer utilization (%)
system.membus.respLayer54.occupancy           1378360                       # Layer occupancy (ticks)
system.membus.respLayer54.utilization             1.3                       # Layer utilization (%)
system.membus.respLayer57.occupancy            273000                       # Layer occupancy (ticks)
system.membus.respLayer57.utilization             0.3                       # Layer utilization (%)
system.membus.respLayer58.occupancy           1339427                       # Layer occupancy (ticks)
system.membus.respLayer58.utilization             1.3                       # Layer utilization (%)
system.membus.respLayer61.occupancy            277750                       # Layer occupancy (ticks)
system.membus.respLayer61.utilization             0.3                       # Layer utilization (%)
system.membus.respLayer62.occupancy           1348145                       # Layer occupancy (ticks)
system.membus.respLayer62.utilization             1.3                       # Layer utilization (%)

---------- End Simulation Statistics   ----------
