
---------- Begin Simulation Statistics ----------
sim_seconds                                  0.000147                       # Number of seconds simulated
sim_ticks                                   147150500                       # Number of ticks simulated
final_tick                                  147150500                       # Number of ticks from beginning of simulation (restored from checkpoints and never reset)
sim_freq                                 1000000000000                       # Frequency of simulated ticks
host_inst_rate                                 157730                       # Simulator instruction rate (inst/s)
host_op_rate                                   160162                       # Simulator op (including micro ops) rate (op/s)
host_tick_rate                               21509310                       # Simulator tick rate (ticks/s)
host_mem_usage                                 647164                       # Number of bytes of host memory used
host_seconds                                     6.84                       # Real time elapsed on the host
sim_insts                                     1079064                       # Number of instructions simulated
sim_ops                                       1095706                       # Number of ops (including micro ops) simulated
system.voltage_domain.voltage                       1                       # Voltage in Volts
system.clk_domain.clock                          1000                       # Clock period in ticks
system.mem_ctrls.bytes_read::cpu0.inst          39744                       # Number of bytes read from this memory
system.mem_ctrls.bytes_read::cpu0.data          59968                       # Number of bytes read from this memory
system.mem_ctrls.bytes_read::cpu1.inst           3520                       # Number of bytes read from this memory
system.mem_ctrls.bytes_read::cpu1.data           1408                       # Number of bytes read from this memory
system.mem_ctrls.bytes_read::cpu2.inst           3456                       # Number of bytes read from this memory
system.mem_ctrls.bytes_read::cpu2.data           2176                       # Number of bytes read from this memory
system.mem_ctrls.bytes_read::cpu3.inst           3392                       # Number of bytes read from this memory
system.mem_ctrls.bytes_read::cpu3.data           1792                       # Number of bytes read from this memory
system.mem_ctrls.bytes_read::total             115456                       # Number of bytes read from this memory
system.mem_ctrls.bytes_inst_read::cpu0.inst        39744                       # Number of instructions bytes read from this memory
system.mem_ctrls.bytes_inst_read::cpu1.inst         3520                       # Number of instructions bytes read from this memory
system.mem_ctrls.bytes_inst_read::cpu2.inst         3456                       # Number of instructions bytes read from this memory
system.mem_ctrls.bytes_inst_read::cpu3.inst         3392                       # Number of instructions bytes read from this memory
system.mem_ctrls.bytes_inst_read::total         50112                       # Number of instructions bytes read from this memory
system.mem_ctrls.bytes_written::writebacks         5568                       # Number of bytes written to this memory
system.mem_ctrls.bytes_written::total            5568                       # Number of bytes written to this memory
system.mem_ctrls.num_reads::cpu0.inst             621                       # Number of read requests responded to by this memory
system.mem_ctrls.num_reads::cpu0.data             937                       # Number of read requests responded to by this memory
system.mem_ctrls.num_reads::cpu1.inst              55                       # Number of read requests responded to by this memory
system.mem_ctrls.num_reads::cpu1.data              22                       # Number of read requests responded to by this memory
system.mem_ctrls.num_reads::cpu2.inst              54                       # Number of read requests responded to by this memory
system.mem_ctrls.num_reads::cpu2.data              34                       # Number of read requests responded to by this memory
system.mem_ctrls.num_reads::cpu3.inst              53                       # Number of read requests responded to by this memory
system.mem_ctrls.num_reads::cpu3.data              28                       # Number of read requests responded to by this memory
system.mem_ctrls.num_reads::total                1804                       # Number of read requests responded to by this memory
system.mem_ctrls.num_writes::writebacks            87                       # Number of write requests responded to by this memory
system.mem_ctrls.num_writes::total                 87                       # Number of write requests responded to by this memory
system.mem_ctrls.bw_read::cpu0.inst         270090825                       # Total read bandwidth from this memory (bytes/s)
system.mem_ctrls.bw_read::cpu0.data         407528347                       # Total read bandwidth from this memory (bytes/s)
system.mem_ctrls.bw_read::cpu1.inst          23921088                       # Total read bandwidth from this memory (bytes/s)
system.mem_ctrls.bw_read::cpu1.data           9568435                       # Total read bandwidth from this memory (bytes/s)
system.mem_ctrls.bw_read::cpu2.inst          23486159                       # Total read bandwidth from this memory (bytes/s)
system.mem_ctrls.bw_read::cpu2.data          14787581                       # Total read bandwidth from this memory (bytes/s)
system.mem_ctrls.bw_read::cpu3.inst          23051230                       # Total read bandwidth from this memory (bytes/s)
system.mem_ctrls.bw_read::cpu3.data          12178008                       # Total read bandwidth from this memory (bytes/s)
system.mem_ctrls.bw_read::total             784611673                       # Total read bandwidth from this memory (bytes/s)
system.mem_ctrls.bw_inst_read::cpu0.inst    270090825                       # Instruction read bandwidth from this memory (bytes/s)
system.mem_ctrls.bw_inst_read::cpu1.inst     23921088                       # Instruction read bandwidth from this memory (bytes/s)
system.mem_ctrls.bw_inst_read::cpu2.inst     23486159                       # Instruction read bandwidth from this memory (bytes/s)
system.mem_ctrls.bw_inst_read::cpu3.inst     23051230                       # Instruction read bandwidth from this memory (bytes/s)
system.mem_ctrls.bw_inst_read::total        340549302                       # Instruction read bandwidth from this memory (bytes/s)
system.mem_ctrls.bw_write::writebacks        37838811                       # Write bandwidth from this memory (bytes/s)
system.mem_ctrls.bw_write::total             37838811                       # Write bandwidth from this memory (bytes/s)
system.mem_ctrls.bw_total::writebacks        37838811                       # Total bandwidth to/from this memory (bytes/s)
system.mem_ctrls.bw_total::cpu0.inst        270090825                       # Total bandwidth to/from this memory (bytes/s)
system.mem_ctrls.bw_total::cpu0.data        407528347                       # Total bandwidth to/from this memory (bytes/s)
system.mem_ctrls.bw_total::cpu1.inst         23921088                       # Total bandwidth to/from this memory (bytes/s)
system.mem_ctrls.bw_total::cpu1.data          9568435                       # Total bandwidth to/from this memory (bytes/s)
system.mem_ctrls.bw_total::cpu2.inst         23486159                       # Total bandwidth to/from this memory (bytes/s)
system.mem_ctrls.bw_total::cpu2.data         14787581                       # Total bandwidth to/from this memory (bytes/s)
system.mem_ctrls.bw_total::cpu3.inst         23051230                       # Total bandwidth to/from this memory (bytes/s)
system.mem_ctrls.bw_total::cpu3.data         12178008                       # Total bandwidth to/from this memory (bytes/s)
system.mem_ctrls.bw_total::total            822450484                       # Total bandwidth to/from this memory (bytes/s)
system.mem_ctrls.readReqs                        1805                       # Number of read requests accepted
system.mem_ctrls.writeReqs                         87                       # Number of write requests accepted
system.mem_ctrls.readBursts                      1805                       # Number of DRAM read bursts, including those serviced by the write queue
system.mem_ctrls.writeBursts                       87                       # Number of DRAM write bursts, including those merged in the write queue
system.mem_ctrls.bytesReadDRAM                 112128                       # Total number of bytes read from DRAM
system.mem_ctrls.bytesReadWrQ                    3392                       # Total number of bytes read from write queue
system.mem_ctrls.bytesWritten                    4224                       # Total number of bytes written to DRAM
system.mem_ctrls.bytesReadSys                  115520                       # Total read bytes from the system interface side
system.mem_ctrls.bytesWrittenSys                 5568                       # Total written bytes from the system interface side
system.mem_ctrls.servicedByWrQ                     53                       # Number of DRAM read bursts serviced by the write queue
system.mem_ctrls.mergedWrBursts                     2                       # Number of DRAM write bursts merged with an existing one
system.mem_ctrls.neitherReadNorWriteReqs            7                       # Number of requests that are neither read nor write
system.mem_ctrls.perBankRdBursts::0               187                       # Per bank write bursts
system.mem_ctrls.perBankRdBursts::1               238                       # Per bank write bursts
system.mem_ctrls.perBankRdBursts::2               175                       # Per bank write bursts
system.mem_ctrls.perBankRdBursts::3               225                       # Per bank write bursts
system.mem_ctrls.perBankRdBursts::4               161                       # Per bank write bursts
system.mem_ctrls.perBankRdBursts::5               169                       # Per bank write bursts
system.mem_ctrls.perBankRdBursts::6               233                       # Per bank write bursts
system.mem_ctrls.perBankRdBursts::7               157                       # Per bank write bursts
system.mem_ctrls.perBankRdBursts::8                16                       # Per bank write bursts
system.mem_ctrls.perBankRdBursts::9                 8                       # Per bank write bursts
system.mem_ctrls.perBankRdBursts::10                0                       # Per bank write bursts
system.mem_ctrls.perBankRdBursts::11               15                       # Per bank write bursts
system.mem_ctrls.perBankRdBursts::12                8                       # Per bank write bursts
system.mem_ctrls.perBankRdBursts::13               40                       # Per bank write bursts
system.mem_ctrls.perBankRdBursts::14               39                       # Per bank write bursts
system.mem_ctrls.perBankRdBursts::15               81                       # Per bank write bursts
system.mem_ctrls.perBankWrBursts::0                 1                       # Per bank write bursts
system.mem_ctrls.perBankWrBursts::1                 0                       # Per bank write bursts
system.mem_ctrls.perBankWrBursts::2                 4                       # Per bank write bursts
system.mem_ctrls.perBankWrBursts::3                23                       # Per bank write bursts
system.mem_ctrls.perBankWrBursts::4                 0                       # Per bank write bursts
system.mem_ctrls.perBankWrBursts::5                 0                       # Per bank write bursts
system.mem_ctrls.perBankWrBursts::6                 0                       # Per bank write bursts
system.mem_ctrls.perBankWrBursts::7                11                       # Per bank write bursts
system.mem_ctrls.perBankWrBursts::8                 0                       # Per bank write bursts
system.mem_ctrls.perBankWrBursts::9                 0                       # Per bank write bursts
system.mem_ctrls.perBankWrBursts::10                0                       # Per bank write bursts
system.mem_ctrls.perBankWrBursts::11                0                       # Per bank write bursts
system.mem_ctrls.perBankWrBursts::12                0                       # Per bank write bursts
system.mem_ctrls.perBankWrBursts::13                0                       # Per bank write bursts
system.mem_ctrls.perBankWrBursts::14                0                       # Per bank write bursts
system.mem_ctrls.perBankWrBursts::15               27                       # Per bank write bursts
system.mem_ctrls.numRdRetry                         0                       # Number of times read queue was full causing retry
system.mem_ctrls.numWrRetry                         0                       # Number of times write queue was full causing retry
system.mem_ctrls.totGap                     147143000                       # Total gap between requests
system.mem_ctrls.readPktSize::0                     0                       # Read request sizes (log2)
system.mem_ctrls.readPktSize::1                     0                       # Read request sizes (log2)
system.mem_ctrls.readPktSize::2                     0                       # Read request sizes (log2)
system.mem_ctrls.readPktSize::3                     0                       # Read request sizes (log2)
system.mem_ctrls.readPktSize::4                     0                       # Read request sizes (log2)
system.mem_ctrls.readPktSize::5                     0                       # Read request sizes (log2)
system.mem_ctrls.readPktSize::6                  1805                       # Read request sizes (log2)
system.mem_ctrls.writePktSize::0                    0                       # Write request sizes (log2)
system.mem_ctrls.writePktSize::1                    0                       # Write request sizes (log2)
system.mem_ctrls.writePktSize::2                    0                       # Write request sizes (log2)
system.mem_ctrls.writePktSize::3                    0                       # Write request sizes (log2)
system.mem_ctrls.writePktSize::4                    0                       # Write request sizes (log2)
system.mem_ctrls.writePktSize::5                    0                       # Write request sizes (log2)
system.mem_ctrls.writePktSize::6                   87                       # Write request sizes (log2)
system.mem_ctrls.rdQLenPdf::0                    1193                       # What read queue length does an incoming req see
system.mem_ctrls.rdQLenPdf::1                     305                       # What read queue length does an incoming req see
system.mem_ctrls.rdQLenPdf::2                     118                       # What read queue length does an incoming req see
system.mem_ctrls.rdQLenPdf::3                      61                       # What read queue length does an incoming req see
system.mem_ctrls.rdQLenPdf::4                      37                       # What read queue length does an incoming req see
system.mem_ctrls.rdQLenPdf::5                      20                       # What read queue length does an incoming req see
system.mem_ctrls.rdQLenPdf::6                      10                       # What read queue length does an incoming req see
system.mem_ctrls.rdQLenPdf::7                       3                       # What read queue length does an incoming req see
system.mem_ctrls.rdQLenPdf::8                       3                       # What read queue length does an incoming req see
system.mem_ctrls.rdQLenPdf::9                       2                       # What read queue length does an incoming req see
system.mem_ctrls.rdQLenPdf::10                      0                       # What read queue length does an incoming req see
system.mem_ctrls.rdQLenPdf::11                      0                       # What read queue length does an incoming req see
system.mem_ctrls.rdQLenPdf::12                      0                       # What read queue length does an incoming req see
system.mem_ctrls.rdQLenPdf::13                      0                       # What read queue length does an incoming req see
system.mem_ctrls.rdQLenPdf::14                      0                       # What read queue length does an incoming req see
system.mem_ctrls.rdQLenPdf::15                      0                       # What read queue length does an incoming req see
system.mem_ctrls.rdQLenPdf::16                      0                       # What read queue length does an incoming req see
system.mem_ctrls.rdQLenPdf::17                      0                       # What read queue length does an incoming req see
system.mem_ctrls.rdQLenPdf::18                      0                       # What read queue length does an incoming req see
system.mem_ctrls.rdQLenPdf::19                      0                       # What read queue length does an incoming req see
system.mem_ctrls.rdQLenPdf::20                      0                       # What read queue length does an incoming req see
system.mem_ctrls.rdQLenPdf::21                      0                       # What read queue length does an incoming req see
system.mem_ctrls.rdQLenPdf::22                      0                       # What read queue length does an incoming req see
system.mem_ctrls.rdQLenPdf::23                      0                       # What read queue length does an incoming req see
system.mem_ctrls.rdQLenPdf::24                      0                       # What read queue length does an incoming req see
system.mem_ctrls.rdQLenPdf::25                      0                       # What read queue length does an incoming req see
system.mem_ctrls.rdQLenPdf::26                      0                       # What read queue length does an incoming req see
system.mem_ctrls.rdQLenPdf::27                      0                       # What read queue length does an incoming req see
system.mem_ctrls.rdQLenPdf::28                      0                       # What read queue length does an incoming req see
system.mem_ctrls.rdQLenPdf::29                      0                       # What read queue length does an incoming req see
system.mem_ctrls.rdQLenPdf::30                      0                       # What read queue length does an incoming req see
system.mem_ctrls.rdQLenPdf::31                      0                       # What read queue length does an incoming req see
system.mem_ctrls.wrQLenPdf::0                       1                       # What write queue length does an incoming req see
system.mem_ctrls.wrQLenPdf::1                       1                       # What write queue length does an incoming req see
system.mem_ctrls.wrQLenPdf::2                       1                       # What write queue length does an incoming req see
system.mem_ctrls.wrQLenPdf::3                       1                       # What write queue length does an incoming req see
system.mem_ctrls.wrQLenPdf::4                       1                       # What write queue length does an incoming req see
system.mem_ctrls.wrQLenPdf::5                       1                       # What write queue length does an incoming req see
system.mem_ctrls.wrQLenPdf::6                       1                       # What write queue length does an incoming req see
system.mem_ctrls.wrQLenPdf::7                       1                       # What write queue length does an incoming req see
system.mem_ctrls.wrQLenPdf::8                       1                       # What write queue length does an incoming req see
system.mem_ctrls.wrQLenPdf::9                       1                       # What write queue length does an incoming req see
system.mem_ctrls.wrQLenPdf::10                      1                       # What write queue length does an incoming req see
system.mem_ctrls.wrQLenPdf::11                      1                       # What write queue length does an incoming req see
system.mem_ctrls.wrQLenPdf::12                      1                       # What write queue length does an incoming req see
system.mem_ctrls.wrQLenPdf::13                      1                       # What write queue length does an incoming req see
system.mem_ctrls.wrQLenPdf::14                      1                       # What write queue length does an incoming req see
system.mem_ctrls.wrQLenPdf::15                      2                       # What write queue length does an incoming req see
system.mem_ctrls.wrQLenPdf::16                      2                       # What write queue length does an incoming req see
system.mem_ctrls.wrQLenPdf::17                      4                       # What write queue length does an incoming req see
system.mem_ctrls.wrQLenPdf::18                      5                       # What write queue length does an incoming req see
system.mem_ctrls.wrQLenPdf::19                      4                       # What write queue length does an incoming req see
system.mem_ctrls.wrQLenPdf::20                      4                       # What write queue length does an incoming req see
system.mem_ctrls.wrQLenPdf::21                      4                       # What write queue length does an incoming req see
system.mem_ctrls.wrQLenPdf::22                      4                       # What write queue length does an incoming req see
system.mem_ctrls.wrQLenPdf::23                      4                       # What write queue length does an incoming req see
system.mem_ctrls.wrQLenPdf::24                      4                       # What write queue length does an incoming req see
system.mem_ctrls.wrQLenPdf::25                      4                       # What write queue length does an incoming req see
system.mem_ctrls.wrQLenPdf::26                      4                       # What write queue length does an incoming req see
system.mem_ctrls.wrQLenPdf::27                      5                       # What write queue length does an incoming req see
system.mem_ctrls.wrQLenPdf::28                      4                       # What write queue length does an incoming req see
system.mem_ctrls.wrQLenPdf::29                      4                       # What write queue length does an incoming req see
system.mem_ctrls.wrQLenPdf::30                      4                       # What write queue length does an incoming req see
system.mem_ctrls.wrQLenPdf::31                      4                       # What write queue length does an incoming req see
system.mem_ctrls.wrQLenPdf::32                      4                       # What write queue length does an incoming req see
system.mem_ctrls.wrQLenPdf::33                      0                       # What write queue length does an incoming req see
system.mem_ctrls.wrQLenPdf::34                      0                       # What write queue length does an incoming req see
system.mem_ctrls.wrQLenPdf::35                      0                       # What write queue length does an incoming req see
system.mem_ctrls.wrQLenPdf::36                      0                       # What write queue length does an incoming req see
system.mem_ctrls.wrQLenPdf::37                      0                       # What write queue length does an incoming req see
system.mem_ctrls.wrQLenPdf::38                      0                       # What write queue length does an incoming req see
system.mem_ctrls.wrQLenPdf::39                      0                       # What write queue length does an incoming req see
system.mem_ctrls.wrQLenPdf::40                      0                       # What write queue length does an incoming req see
system.mem_ctrls.wrQLenPdf::41                      0                       # What write queue length does an incoming req see
system.mem_ctrls.wrQLenPdf::42                      0                       # What write queue length does an incoming req see
system.mem_ctrls.wrQLenPdf::43                      0                       # What write queue length does an incoming req see
system.mem_ctrls.wrQLenPdf::44                      0                       # What write queue length does an incoming req see
system.mem_ctrls.wrQLenPdf::45                      0                       # What write queue length does an incoming req see
system.mem_ctrls.wrQLenPdf::46                      0                       # What write queue length does an incoming req see
system.mem_ctrls.wrQLenPdf::47                      0                       # What write queue length does an incoming req see
system.mem_ctrls.wrQLenPdf::48                      0                       # What write queue length does an incoming req see
system.mem_ctrls.wrQLenPdf::49                      0                       # What write queue length does an incoming req see
system.mem_ctrls.wrQLenPdf::50                      0                       # What write queue length does an incoming req see
system.mem_ctrls.wrQLenPdf::51                      0                       # What write queue length does an incoming req see
system.mem_ctrls.wrQLenPdf::52                      0                       # What write queue length does an incoming req see
system.mem_ctrls.wrQLenPdf::53                      0                       # What write queue length does an incoming req see
system.mem_ctrls.wrQLenPdf::54                      0                       # What write queue length does an incoming req see
system.mem_ctrls.wrQLenPdf::55                      0                       # What write queue length does an incoming req see
system.mem_ctrls.wrQLenPdf::56                      0                       # What write queue length does an incoming req see
system.mem_ctrls.wrQLenPdf::57                      0                       # What write queue length does an incoming req see
system.mem_ctrls.wrQLenPdf::58                      0                       # What write queue length does an incoming req see
system.mem_ctrls.wrQLenPdf::59                      0                       # What write queue length does an incoming req see
system.mem_ctrls.wrQLenPdf::60                      0                       # What write queue length does an incoming req see
system.mem_ctrls.wrQLenPdf::61                      0                       # What write queue length does an incoming req see
system.mem_ctrls.wrQLenPdf::62                      0                       # What write queue length does an incoming req see
system.mem_ctrls.wrQLenPdf::63                      0                       # What write queue length does an incoming req see
system.mem_ctrls.bytesPerActivate::samples          304                       # Bytes accessed per row activation
system.mem_ctrls.bytesPerActivate::mean    372.421053                       # Bytes accessed per row activation
system.mem_ctrls.bytesPerActivate::gmean   212.147770                       # Bytes accessed per row activation
system.mem_ctrls.bytesPerActivate::stdev   371.165936                       # Bytes accessed per row activation
system.mem_ctrls.bytesPerActivate::0-127          106     34.87%     34.87% # Bytes accessed per row activation
system.mem_ctrls.bytesPerActivate::128-255           63     20.72%     55.59% # Bytes accessed per row activation
system.mem_ctrls.bytesPerActivate::256-383           24      7.89%     63.49% # Bytes accessed per row activation
system.mem_ctrls.bytesPerActivate::384-511           21      6.91%     70.39% # Bytes accessed per row activation
system.mem_ctrls.bytesPerActivate::512-639           13      4.28%     74.67% # Bytes accessed per row activation
system.mem_ctrls.bytesPerActivate::640-767            9      2.96%     77.63% # Bytes accessed per row activation
system.mem_ctrls.bytesPerActivate::768-895            4      1.32%     78.95% # Bytes accessed per row activation
system.mem_ctrls.bytesPerActivate::896-1023            7      2.30%     81.25% # Bytes accessed per row activation
system.mem_ctrls.bytesPerActivate::1024-1151           57     18.75%    100.00% # Bytes accessed per row activation
system.mem_ctrls.bytesPerActivate::total          304                       # Bytes accessed per row activation
system.mem_ctrls.rdPerTurnAround::samples            4                       # Reads before turning the bus around for writes
system.mem_ctrls.rdPerTurnAround::mean            413                       # Reads before turning the bus around for writes
system.mem_ctrls.rdPerTurnAround::gmean    175.063516                       # Reads before turning the bus around for writes
system.mem_ctrls.rdPerTurnAround::stdev    558.420988                       # Reads before turning the bus around for writes
system.mem_ctrls.rdPerTurnAround::0-63              1     25.00%     25.00% # Reads before turning the bus around for writes
system.mem_ctrls.rdPerTurnAround::64-127            1     25.00%     50.00% # Reads before turning the bus around for writes
system.mem_ctrls.rdPerTurnAround::320-383            1     25.00%     75.00% # Reads before turning the bus around for writes
system.mem_ctrls.rdPerTurnAround::1216-1279            1     25.00%    100.00% # Reads before turning the bus around for writes
system.mem_ctrls.rdPerTurnAround::total             4                       # Reads before turning the bus around for writes
system.mem_ctrls.wrPerTurnAround::samples            4                       # Writes before turning the bus around for reads
system.mem_ctrls.wrPerTurnAround::mean      16.500000                       # Writes before turning the bus around for reads
system.mem_ctrls.wrPerTurnAround::gmean     16.478137                       # Writes before turning the bus around for reads
system.mem_ctrls.wrPerTurnAround::stdev             1                       # Writes before turning the bus around for reads
system.mem_ctrls.wrPerTurnAround::16                3     75.00%     75.00% # Writes before turning the bus around for reads
system.mem_ctrls.wrPerTurnAround::18                1     25.00%    100.00% # Writes before turning the bus around for reads
system.mem_ctrls.wrPerTurnAround::total             4                       # Writes before turning the bus around for reads
system.mem_ctrls.totQLat                     14822000                       # Total ticks spent queuing
system.mem_ctrls.totMemAccLat                47672000                       # Total ticks spent from burst creation until serviced by the DRAM
system.mem_ctrls.totBusLat                    8760000                       # Total ticks spent in databus transfers
system.mem_ctrls.avgQLat                      8460.05                       # Average queueing delay per DRAM burst
system.mem_ctrls.avgBusLat                    5000.00                       # Average bus latency per DRAM burst
system.mem_ctrls.avgMemAccLat                27210.05                       # Average memory access latency per DRAM burst
system.mem_ctrls.avgRdBW                       762.00                       # Average DRAM read bandwidth in MiByte/s
system.mem_ctrls.avgWrBW                        28.71                       # Average achieved write bandwidth in MiByte/s
system.mem_ctrls.avgRdBWSys                    785.05                       # Average system read bandwidth in MiByte/s
system.mem_ctrls.avgWrBWSys                     37.84                       # Average system write bandwidth in MiByte/s
system.mem_ctrls.peakBW                      12800.00                       # Theoretical peak bandwidth in MiByte/s
system.mem_ctrls.busUtil                         6.18                       # Data bus utilization in percentage
system.mem_ctrls.busUtilRead                     5.95                       # Data bus utilization in percentage for reads
system.mem_ctrls.busUtilWrite                    0.22                       # Data bus utilization in percentage for writes
system.mem_ctrls.avgRdQLen                       1.26                       # Average read queue length when enqueuing
system.mem_ctrls.avgWrQLen                      18.91                       # Average write queue length when enqueuing
system.mem_ctrls.readRowHits                     1447                       # Number of row buffer hits during reads
system.mem_ctrls.writeRowHits                      55                       # Number of row buffer hits during writes
system.mem_ctrls.readRowHitRate                 82.59                       # Row buffer hit rate for reads
system.mem_ctrls.writeRowHitRate                64.71                       # Row buffer hit rate for writes
system.mem_ctrls.avgGap                      77771.14                       # Average gap between requests
system.mem_ctrls.pageHitRate                    81.76                       # Row buffer hit rate, read and write combined
system.mem_ctrls_0.actEnergy                  1882440                       # Energy for activate commands per rank (pJ)
system.mem_ctrls_0.preEnergy                  1027125                       # Energy for precharge commands per rank (pJ)
system.mem_ctrls_0.readEnergy                11356800                       # Energy for read commands per rank (pJ)
system.mem_ctrls_0.writeEnergy                 149040                       # Energy for write commands per rank (pJ)
system.mem_ctrls_0.refreshEnergy              9154080                       # Energy for refresh commands per rank (pJ)
system.mem_ctrls_0.actBackEnergy             72049995                       # Energy for active background per rank (pJ)
system.mem_ctrls_0.preBackEnergy             21037500                       # Energy for precharge background per rank (pJ)
system.mem_ctrls_0.totalEnergy              116656980                       # Total energy per rank (pJ)
system.mem_ctrls_0.averagePower            830.897569                       # Core power per rank (mW)
system.mem_ctrls_0.memoryStateTime::IDLE     36121000                       # Time in different power states
system.mem_ctrls_0.memoryStateTime::REF       4680000                       # Time in different power states
system.mem_ctrls_0.memoryStateTime::PRE_PDN            0                       # Time in different power states
system.mem_ctrls_0.memoryStateTime::ACT     101235500                       # Time in different power states
system.mem_ctrls_0.memoryStateTime::ACT_PDN            0                       # Time in different power states
system.mem_ctrls_1.actEnergy                   264600                       # Energy for activate commands per rank (pJ)
system.mem_ctrls_1.preEnergy                   144375                       # Energy for precharge commands per rank (pJ)
system.mem_ctrls_1.readEnergy                 1248000                       # Energy for read commands per rank (pJ)
system.mem_ctrls_1.writeEnergy                 174960                       # Energy for write commands per rank (pJ)
system.mem_ctrls_1.refreshEnergy              9154080                       # Energy for refresh commands per rank (pJ)
system.mem_ctrls_1.actBackEnergy             33395445                       # Energy for active background per rank (pJ)
system.mem_ctrls_1.preBackEnergy             54945000                       # Energy for precharge background per rank (pJ)
system.mem_ctrls_1.totalEnergy               99326460                       # Total energy per rank (pJ)
system.mem_ctrls_1.averagePower            707.459717                       # Core power per rank (mW)
system.mem_ctrls_1.memoryStateTime::IDLE     94449000                       # Time in different power states
system.mem_ctrls_1.memoryStateTime::REF       4680000                       # Time in different power states
system.mem_ctrls_1.memoryStateTime::PRE_PDN            0                       # Time in different power states
system.mem_ctrls_1.memoryStateTime::ACT      44517750                       # Time in different power states
system.mem_ctrls_1.memoryStateTime::ACT_PDN            0                       # Time in different power states
system.cpu0.branchPred.lookups                  29851                       # Number of BP lookups
system.cpu0.branchPred.condPredicted            27466                       # Number of conditional branches predicted
system.cpu0.branchPred.condIncorrect             1798                       # Number of conditional branches incorrect
system.cpu0.branchPred.BTBLookups               24034                       # Number of BTB lookups
system.cpu0.branchPred.BTBHits                  23225                       # Number of BTB hits
system.cpu0.branchPred.BTBCorrect                   0                       # Number of correct BTB predictions (this stat may not work properly.
system.cpu0.branchPred.BTBHitPct            96.633935                       # BTB Hit Percentage
system.cpu0.branchPred.usedRAS                    772                       # Number of times the RAS was used to get a target.
system.cpu0.branchPred.RASInCorrect                 7                       # Number of incorrect RAS predictions.
system.cpu_voltage_domain.voltage                   1                       # Voltage in Volts
system.cpu_clk_domain.clock                       500                       # Clock period in ticks
system.cpu0.dstage2_mmu.stage2_tlb.walker.walks            0                       # Table walker walks requested
system.cpu0.dstage2_mmu.stage2_tlb.walker.walkRequestOrigin_Requested::Data            0                       # Table walker requests started/completed, data/inst
system.cpu0.dstage2_mmu.stage2_tlb.walker.walkRequestOrigin_Requested::Inst            0                       # Table walker requests started/completed, data/inst
system.cpu0.dstage2_mmu.stage2_tlb.walker.walkRequestOrigin_Requested::total            0                       # Table walker requests started/completed, data/inst
system.cpu0.dstage2_mmu.stage2_tlb.walker.walkRequestOrigin_Completed::Data            0                       # Table walker requests started/completed, data/inst
system.cpu0.dstage2_mmu.stage2_tlb.walker.walkRequestOrigin_Completed::Inst            0                       # Table walker requests started/completed, data/inst
system.cpu0.dstage2_mmu.stage2_tlb.walker.walkRequestOrigin_Completed::total            0                       # Table walker requests started/completed, data/inst
system.cpu0.dstage2_mmu.stage2_tlb.walker.walkRequestOrigin::total            0                       # Table walker requests started/completed, data/inst
system.cpu0.dstage2_mmu.stage2_tlb.inst_hits            0                       # ITB inst hits
system.cpu0.dstage2_mmu.stage2_tlb.inst_misses            0                       # ITB inst misses
system.cpu0.dstage2_mmu.stage2_tlb.read_hits            0                       # DTB read hits
system.cpu0.dstage2_mmu.stage2_tlb.read_misses            0                       # DTB read misses
system.cpu0.dstage2_mmu.stage2_tlb.write_hits            0                       # DTB write hits
system.cpu0.dstage2_mmu.stage2_tlb.write_misses            0                       # DTB write misses
system.cpu0.dstage2_mmu.stage2_tlb.flush_tlb            0                       # Number of times complete TLB was flushed
system.cpu0.dstage2_mmu.stage2_tlb.flush_tlb_mva            0                       # Number of times TLB was flushed by MVA
system.cpu0.dstage2_mmu.stage2_tlb.flush_tlb_mva_asid            0                       # Number of times TLB was flushed by MVA & ASID
system.cpu0.dstage2_mmu.stage2_tlb.flush_tlb_asid            0                       # Number of times TLB was flushed by ASID
system.cpu0.dstage2_mmu.stage2_tlb.flush_entries            0                       # Number of entries that have been flushed from TLB
system.cpu0.dstage2_mmu.stage2_tlb.align_faults            0                       # Number of TLB faults due to alignment restrictions
system.cpu0.dstage2_mmu.stage2_tlb.prefetch_faults            0                       # Number of TLB faults due to prefetch
system.cpu0.dstage2_mmu.stage2_tlb.domain_faults            0                       # Number of TLB faults due to domain restrictions
system.cpu0.dstage2_mmu.stage2_tlb.perms_faults            0                       # Number of TLB faults due to permissions restrictions
system.cpu0.dstage2_mmu.stage2_tlb.read_accesses            0                       # DTB read accesses
system.cpu0.dstage2_mmu.stage2_tlb.write_accesses            0                       # DTB write accesses
system.cpu0.dstage2_mmu.stage2_tlb.inst_accesses            0                       # ITB inst accesses
system.cpu0.dstage2_mmu.stage2_tlb.hits             0                       # DTB hits
system.cpu0.dstage2_mmu.stage2_tlb.misses            0                       # DTB misses
system.cpu0.dstage2_mmu.stage2_tlb.accesses            0                       # DTB accesses
system.cpu0.dtb.walker.walks                        0                       # Table walker walks requested
system.cpu0.dtb.walker.walkRequestOrigin_Requested::Data            0                       # Table walker requests started/completed, data/inst
system.cpu0.dtb.walker.walkRequestOrigin_Requested::Inst            0                       # Table walker requests started/completed, data/inst
system.cpu0.dtb.walker.walkRequestOrigin_Requested::total            0                       # Table walker requests started/completed, data/inst
system.cpu0.dtb.walker.walkRequestOrigin_Completed::Data            0                       # Table walker requests started/completed, data/inst
system.cpu0.dtb.walker.walkRequestOrigin_Completed::Inst            0                       # Table walker requests started/completed, data/inst
system.cpu0.dtb.walker.walkRequestOrigin_Completed::total            0                       # Table walker requests started/completed, data/inst
system.cpu0.dtb.walker.walkRequestOrigin::total            0                       # Table walker requests started/completed, data/inst
system.cpu0.dtb.inst_hits                           0                       # ITB inst hits
system.cpu0.dtb.inst_misses                         0                       # ITB inst misses
system.cpu0.dtb.read_hits                           0                       # DTB read hits
system.cpu0.dtb.read_misses                         0                       # DTB read misses
system.cpu0.dtb.write_hits                          0                       # DTB write hits
system.cpu0.dtb.write_misses                        0                       # DTB write misses
system.cpu0.dtb.flush_tlb                           0                       # Number of times complete TLB was flushed
system.cpu0.dtb.flush_tlb_mva                       0                       # Number of times TLB was flushed by MVA
system.cpu0.dtb.flush_tlb_mva_asid                  0                       # Number of times TLB was flushed by MVA & ASID
system.cpu0.dtb.flush_tlb_asid                      0                       # Number of times TLB was flushed by ASID
system.cpu0.dtb.flush_entries                       0                       # Number of entries that have been flushed from TLB
system.cpu0.dtb.align_faults                        0                       # Number of TLB faults due to alignment restrictions
system.cpu0.dtb.prefetch_faults                     0                       # Number of TLB faults due to prefetch
system.cpu0.dtb.domain_faults                       0                       # Number of TLB faults due to domain restrictions
system.cpu0.dtb.perms_faults                        0                       # Number of TLB faults due to permissions restrictions
system.cpu0.dtb.read_accesses                       0                       # DTB read accesses
system.cpu0.dtb.write_accesses                      0                       # DTB write accesses
system.cpu0.dtb.inst_accesses                       0                       # ITB inst accesses
system.cpu0.dtb.hits                                0                       # DTB hits
system.cpu0.dtb.misses                              0                       # DTB misses
system.cpu0.dtb.accesses                            0                       # DTB accesses
system.cpu0.istage2_mmu.stage2_tlb.walker.walks            0                       # Table walker walks requested
system.cpu0.istage2_mmu.stage2_tlb.walker.walkRequestOrigin_Requested::Data            0                       # Table walker requests started/completed, data/inst
system.cpu0.istage2_mmu.stage2_tlb.walker.walkRequestOrigin_Requested::Inst            0                       # Table walker requests started/completed, data/inst
system.cpu0.istage2_mmu.stage2_tlb.walker.walkRequestOrigin_Requested::total            0                       # Table walker requests started/completed, data/inst
system.cpu0.istage2_mmu.stage2_tlb.walker.walkRequestOrigin_Completed::Data            0                       # Table walker requests started/completed, data/inst
system.cpu0.istage2_mmu.stage2_tlb.walker.walkRequestOrigin_Completed::Inst            0                       # Table walker requests started/completed, data/inst
system.cpu0.istage2_mmu.stage2_tlb.walker.walkRequestOrigin_Completed::total            0                       # Table walker requests started/completed, data/inst
system.cpu0.istage2_mmu.stage2_tlb.walker.walkRequestOrigin::total            0                       # Table walker requests started/completed, data/inst
system.cpu0.istage2_mmu.stage2_tlb.inst_hits            0                       # ITB inst hits
system.cpu0.istage2_mmu.stage2_tlb.inst_misses            0                       # ITB inst misses
system.cpu0.istage2_mmu.stage2_tlb.read_hits            0                       # DTB read hits
system.cpu0.istage2_mmu.stage2_tlb.read_misses            0                       # DTB read misses
system.cpu0.istage2_mmu.stage2_tlb.write_hits            0                       # DTB write hits
system.cpu0.istage2_mmu.stage2_tlb.write_misses            0                       # DTB write misses
system.cpu0.istage2_mmu.stage2_tlb.flush_tlb            0                       # Number of times complete TLB was flushed
system.cpu0.istage2_mmu.stage2_tlb.flush_tlb_mva            0                       # Number of times TLB was flushed by MVA
system.cpu0.istage2_mmu.stage2_tlb.flush_tlb_mva_asid            0                       # Number of times TLB was flushed by MVA & ASID
system.cpu0.istage2_mmu.stage2_tlb.flush_tlb_asid            0                       # Number of times TLB was flushed by ASID
system.cpu0.istage2_mmu.stage2_tlb.flush_entries            0                       # Number of entries that have been flushed from TLB
system.cpu0.istage2_mmu.stage2_tlb.align_faults            0                       # Number of TLB faults due to alignment restrictions
system.cpu0.istage2_mmu.stage2_tlb.prefetch_faults            0                       # Number of TLB faults due to prefetch
system.cpu0.istage2_mmu.stage2_tlb.domain_faults            0                       # Number of TLB faults due to domain restrictions
system.cpu0.istage2_mmu.stage2_tlb.perms_faults            0                       # Number of TLB faults due to permissions restrictions
system.cpu0.istage2_mmu.stage2_tlb.read_accesses            0                       # DTB read accesses
system.cpu0.istage2_mmu.stage2_tlb.write_accesses            0                       # DTB write accesses
system.cpu0.istage2_mmu.stage2_tlb.inst_accesses            0                       # ITB inst accesses
system.cpu0.istage2_mmu.stage2_tlb.hits             0                       # DTB hits
system.cpu0.istage2_mmu.stage2_tlb.misses            0                       # DTB misses
system.cpu0.istage2_mmu.stage2_tlb.accesses            0                       # DTB accesses
system.cpu0.itb.walker.walks                        0                       # Table walker walks requested
system.cpu0.itb.walker.walkRequestOrigin_Requested::Data            0                       # Table walker requests started/completed, data/inst
system.cpu0.itb.walker.walkRequestOrigin_Requested::Inst            0                       # Table walker requests started/completed, data/inst
system.cpu0.itb.walker.walkRequestOrigin_Requested::total            0                       # Table walker requests started/completed, data/inst
system.cpu0.itb.walker.walkRequestOrigin_Completed::Data            0                       # Table walker requests started/completed, data/inst
system.cpu0.itb.walker.walkRequestOrigin_Completed::Inst            0                       # Table walker requests started/completed, data/inst
system.cpu0.itb.walker.walkRequestOrigin_Completed::total            0                       # Table walker requests started/completed, data/inst
system.cpu0.itb.walker.walkRequestOrigin::total            0                       # Table walker requests started/completed, data/inst
system.cpu0.itb.inst_hits                           0                       # ITB inst hits
system.cpu0.itb.inst_misses                         0                       # ITB inst misses
system.cpu0.itb.read_hits                           0                       # DTB read hits
system.cpu0.itb.read_misses                         0                       # DTB read misses
system.cpu0.itb.write_hits                          0                       # DTB write hits
system.cpu0.itb.write_misses                        0                       # DTB write misses
system.cpu0.itb.flush_tlb                           0                       # Number of times complete TLB was flushed
system.cpu0.itb.flush_tlb_mva                       0                       # Number of times TLB was flushed by MVA
system.cpu0.itb.flush_tlb_mva_asid                  0                       # Number of times TLB was flushed by MVA & ASID
system.cpu0.itb.flush_tlb_asid                      0                       # Number of times TLB was flushed by ASID
system.cpu0.itb.flush_entries                       0                       # Number of entries that have been flushed from TLB
system.cpu0.itb.align_faults                        0                       # Number of TLB faults due to alignment restrictions
system.cpu0.itb.prefetch_faults                     0                       # Number of TLB faults due to prefetch
system.cpu0.itb.domain_faults                       0                       # Number of TLB faults due to domain restrictions
system.cpu0.itb.perms_faults                        0                       # Number of TLB faults due to permissions restrictions
system.cpu0.itb.read_accesses                       0                       # DTB read accesses
system.cpu0.itb.write_accesses                      0                       # DTB write accesses
system.cpu0.itb.inst_accesses                       0                       # ITB inst accesses
system.cpu0.itb.hits                                0                       # DTB hits
system.cpu0.itb.misses                              0                       # DTB misses
system.cpu0.itb.accesses                            0                       # DTB accesses
system.cpu0.workload.num_syscalls                  68                       # Number of system calls
system.cpu0.numCycles                          294302                       # number of cpu cycles simulated
system.cpu0.numWorkItemsStarted                     0                       # number of work items this cpu started
system.cpu0.numWorkItemsCompleted                   0                       # number of work items this cpu completed
system.cpu0.fetch.icacheStallCycles             15771                       # Number of cycles fetch is stalled on an Icache miss
system.cpu0.fetch.Insts                        338336                       # Number of instructions fetch has processed
system.cpu0.fetch.Branches                      29851                       # Number of branches that fetch encountered
system.cpu0.fetch.predictedBranches             23997                       # Number of branches that fetch has predicted taken
system.cpu0.fetch.Cycles                       236692                       # Number of cycles fetch has run and was not squashing or blocked
system.cpu0.fetch.SquashCycles                   3671                       # Number of cycles fetch has spent squashing
system.cpu0.fetch.MiscStallCycles                 258                       # Number of cycles fetch has spent waiting on interrupts, or bad addresses, or out of MSHRs
system.cpu0.fetch.PendingTrapStallCycles          108                       # Number of stall cycles due to pending traps
system.cpu0.fetch.IcacheWaitRetryStallCycles          462                       # Number of stall cycles due to full MSHR
system.cpu0.fetch.CacheLines                    94978                       # Number of cache lines fetched
system.cpu0.fetch.IcacheSquashes                  363                       # Number of outstanding Icache misses that were squashed
system.cpu0.fetch.rateDist::samples            255126                       # Number of instructions fetched each cycle (Total)
system.cpu0.fetch.rateDist::mean             1.396714                       # Number of instructions fetched each cycle (Total)
system.cpu0.fetch.rateDist::stdev            1.293620                       # Number of instructions fetched each cycle (Total)
system.cpu0.fetch.rateDist::underflows              0      0.00%      0.00% # Number of instructions fetched each cycle (Total)
system.cpu0.fetch.rateDist::0                   90402     35.43%     35.43% # Number of instructions fetched each cycle (Total)
system.cpu0.fetch.rateDist::1                   65648     25.73%     61.17% # Number of instructions fetched each cycle (Total)
system.cpu0.fetch.rateDist::2                    6538      2.56%     63.73% # Number of instructions fetched each cycle (Total)
system.cpu0.fetch.rateDist::3                   92538     36.27%    100.00% # Number of instructions fetched each cycle (Total)
system.cpu0.fetch.rateDist::overflows               0      0.00%    100.00% # Number of instructions fetched each cycle (Total)
system.cpu0.fetch.rateDist::min_value               0                       # Number of instructions fetched each cycle (Total)
system.cpu0.fetch.rateDist::max_value               3                       # Number of instructions fetched each cycle (Total)
system.cpu0.fetch.rateDist::total              255126                       # Number of instructions fetched each cycle (Total)
system.cpu0.fetch.branchRate                 0.101430                       # Number of branch fetches per cycle
system.cpu0.fetch.rate                       1.149622                       # Number of inst fetches per cycle
system.cpu0.decode.IdleCycles                   16380                       # Number of cycles decode is idle
system.cpu0.decode.BlockedCycles                78430                       # Number of cycles decode is blocked
system.cpu0.decode.RunCycles                   155736                       # Number of cycles decode is running
system.cpu0.decode.UnblockCycles                 3070                       # Number of cycles decode is unblocking
system.cpu0.decode.SquashCycles                  1510                       # Number of cycles decode is squashing
system.cpu0.decode.BranchResolved                 945                       # Number of times decode resolved a branch
system.cpu0.decode.BranchMispred                  346                       # Number of times decode detected a branch misprediction
system.cpu0.decode.DecodedInsts                342846                       # Number of instructions handled by decode
system.cpu0.decode.SquashedInsts                 6501                       # Number of squashed instructions handled by decode
system.cpu0.rename.SquashCycles                  1510                       # Number of cycles rename is squashing
system.cpu0.rename.IdleCycles                   22363                       # Number of cycles rename is idle
system.cpu0.rename.BlockCycles                   6008                       # Number of cycles rename is blocking
system.cpu0.rename.serializeStallCycles          6390                       # count of cycles rename stalled for serializing inst
system.cpu0.rename.RunCycles                   152773                       # Number of cycles rename is running
system.cpu0.rename.UnblockCycles                66082                       # Number of cycles rename is unblocking
system.cpu0.rename.RenamedInsts                337352                       # Number of instructions processed by rename
system.cpu0.rename.SquashedInsts                 2251                       # Number of squashed instructions processed by rename
system.cpu0.rename.ROBFullEvents                  111                       # Number of times rename has blocked due to ROB full
system.cpu0.rename.IQFullEvents                    12                       # Number of times rename has blocked due to IQ full
system.cpu0.rename.LQFullEvents                     1                       # Number of times rename has blocked due to LQ full
system.cpu0.rename.SQFullEvents                 64662                       # Number of times rename has blocked due to SQ full
system.cpu0.rename.RenamedOperands             423760                       # Number of destination operands rename has renamed
system.cpu0.rename.RenameLookups              1669350                       # Number of register rename lookups that rename has made
system.cpu0.rename.int_rename_lookups          544910                       # Number of integer rename lookups
system.cpu0.rename.fp_rename_lookups               22                       # Number of floating rename lookups
system.cpu0.rename.CommittedMaps               408000                       # Number of HB maps that are committed
system.cpu0.rename.UndoneMaps                   15760                       # Number of HB maps that are undone due to squashing
system.cpu0.rename.serializingInsts               108                       # count of serializing insts renamed
system.cpu0.rename.tempSerializingInsts           105                       # count of temporary serializing insts renamed
system.cpu0.rename.skidInsts                     6638                       # count of insts added to the skid buffer
system.cpu0.memDep0.insertedLoads               72903                       # Number of loads inserted to the mem dependence unit.
system.cpu0.memDep0.insertedStores              22159                       # Number of stores inserted to the mem dependence unit.
system.cpu0.memDep0.conflictingLoads              260                       # Number of conflicting loads.
system.cpu0.memDep0.conflictingStores             138                       # Number of conflicting stores.
system.cpu0.iq.iqInstsAdded                    334946                       # Number of instructions added to the IQ (excludes non-spec)
system.cpu0.iq.iqNonSpecInstsAdded                245                       # Number of non-speculative instructions added to the IQ
system.cpu0.iq.iqInstsIssued                   331180                       # Number of instructions issued
system.cpu0.iq.iqSquashedInstsIssued              837                       # Number of squashed instructions issued
system.cpu0.iq.iqSquashedInstsExamined          12269                       # Number of squashed instructions iterated over during squash; mainly for profiling
system.cpu0.iq.iqSquashedOperandsExamined        31500                       # Number of squashed operands that are examined and possibly removed from graph
system.cpu0.iq.iqSquashedNonSpecRemoved            47                       # Number of squashed non-spec instructions that were removed
system.cpu0.iq.issued_per_cycle::samples       255126                       # Number of insts issued each cycle
system.cpu0.iq.issued_per_cycle::mean        1.298104                       # Number of insts issued each cycle
system.cpu0.iq.issued_per_cycle::stdev       1.317881                       # Number of insts issued each cycle
system.cpu0.iq.issued_per_cycle::underflows            0      0.00%      0.00% # Number of insts issued each cycle
system.cpu0.iq.issued_per_cycle::0             112432     44.07%     44.07% # Number of insts issued each cycle
system.cpu0.iq.issued_per_cycle::1              33570     13.16%     57.23% # Number of insts issued each cycle
system.cpu0.iq.issued_per_cycle::2              32826     12.87%     70.09% # Number of insts issued each cycle
system.cpu0.iq.issued_per_cycle::3              73237     28.71%     98.80% # Number of insts issued each cycle
system.cpu0.iq.issued_per_cycle::4               3058      1.20%    100.00% # Number of insts issued each cycle
system.cpu0.iq.issued_per_cycle::5                  3      0.00%    100.00% # Number of insts issued each cycle
system.cpu0.iq.issued_per_cycle::6                  0      0.00%    100.00% # Number of insts issued each cycle
system.cpu0.iq.issued_per_cycle::7                  0      0.00%    100.00% # Number of insts issued each cycle
system.cpu0.iq.issued_per_cycle::8                  0      0.00%    100.00% # Number of insts issued each cycle
system.cpu0.iq.issued_per_cycle::overflows            0      0.00%    100.00% # Number of insts issued each cycle
system.cpu0.iq.issued_per_cycle::min_value            0                       # Number of insts issued each cycle
system.cpu0.iq.issued_per_cycle::max_value            5                       # Number of insts issued each cycle
system.cpu0.iq.issued_per_cycle::total         255126                       # Number of insts issued each cycle
system.cpu0.iq.fu_full::No_OpClass                  0      0.00%      0.00% # attempts to use FU when none available
system.cpu0.iq.fu_full::IntAlu                   4429      9.02%      9.02% # attempts to use FU when none available
system.cpu0.iq.fu_full::IntMult                   780      1.59%     10.61% # attempts to use FU when none available
system.cpu0.iq.fu_full::IntDiv                      0      0.00%     10.61% # attempts to use FU when none available
system.cpu0.iq.fu_full::FloatAdd                    0      0.00%     10.61% # attempts to use FU when none available
system.cpu0.iq.fu_full::FloatCmp                    0      0.00%     10.61% # attempts to use FU when none available
system.cpu0.iq.fu_full::FloatCvt                    0      0.00%     10.61% # attempts to use FU when none available
system.cpu0.iq.fu_full::FloatMult                   0      0.00%     10.61% # attempts to use FU when none available
system.cpu0.iq.fu_full::FloatDiv                    0      0.00%     10.61% # attempts to use FU when none available
system.cpu0.iq.fu_full::FloatSqrt                   0      0.00%     10.61% # attempts to use FU when none available
system.cpu0.iq.fu_full::SimdAdd                     0      0.00%     10.61% # attempts to use FU when none available
system.cpu0.iq.fu_full::SimdAddAcc                  0      0.00%     10.61% # attempts to use FU when none available
system.cpu0.iq.fu_full::SimdAlu                     0      0.00%     10.61% # attempts to use FU when none available
system.cpu0.iq.fu_full::SimdCmp                     0      0.00%     10.61% # attempts to use FU when none available
system.cpu0.iq.fu_full::SimdCvt                     0      0.00%     10.61% # attempts to use FU when none available
system.cpu0.iq.fu_full::SimdMisc                    0      0.00%     10.61% # attempts to use FU when none available
system.cpu0.iq.fu_full::SimdMult                    0      0.00%     10.61% # attempts to use FU when none available
system.cpu0.iq.fu_full::SimdMultAcc                 0      0.00%     10.61% # attempts to use FU when none available
system.cpu0.iq.fu_full::SimdShift                   0      0.00%     10.61% # attempts to use FU when none available
system.cpu0.iq.fu_full::SimdShiftAcc                0      0.00%     10.61% # attempts to use FU when none available
system.cpu0.iq.fu_full::SimdSqrt                    0      0.00%     10.61% # attempts to use FU when none available
system.cpu0.iq.fu_full::SimdFloatAdd                0      0.00%     10.61% # attempts to use FU when none available
system.cpu0.iq.fu_full::SimdFloatAlu                0      0.00%     10.61% # attempts to use FU when none available
system.cpu0.iq.fu_full::SimdFloatCmp                0      0.00%     10.61% # attempts to use FU when none available
system.cpu0.iq.fu_full::SimdFloatCvt                0      0.00%     10.61% # attempts to use FU when none available
system.cpu0.iq.fu_full::SimdFloatDiv                0      0.00%     10.61% # attempts to use FU when none available
system.cpu0.iq.fu_full::SimdFloatMisc               0      0.00%     10.61% # attempts to use FU when none available
system.cpu0.iq.fu_full::SimdFloatMult               0      0.00%     10.61% # attempts to use FU when none available
system.cpu0.iq.fu_full::SimdFloatMultAcc            0      0.00%     10.61% # attempts to use FU when none available
system.cpu0.iq.fu_full::SimdFloatSqrt               0      0.00%     10.61% # attempts to use FU when none available
system.cpu0.iq.fu_full::MemRead                 34849     70.99%     81.60% # attempts to use FU when none available
system.cpu0.iq.fu_full::MemWrite                 9030     18.40%    100.00% # attempts to use FU when none available
system.cpu0.iq.fu_full::IprAccess                   0      0.00%    100.00% # attempts to use FU when none available
system.cpu0.iq.fu_full::InstPrefetch                0      0.00%    100.00% # attempts to use FU when none available
system.cpu0.iq.FU_type_0::No_OpClass                0      0.00%      0.00% # Type of FU issued
system.cpu0.iq.FU_type_0::IntAlu               186176     56.22%     56.22% # Type of FU issued
system.cpu0.iq.FU_type_0::IntMult               51308     15.49%     71.71% # Type of FU issued
system.cpu0.iq.FU_type_0::IntDiv                    0      0.00%     71.71% # Type of FU issued
system.cpu0.iq.FU_type_0::FloatAdd                  0      0.00%     71.71% # Type of FU issued
system.cpu0.iq.FU_type_0::FloatCmp                  0      0.00%     71.71% # Type of FU issued
system.cpu0.iq.FU_type_0::FloatCvt                  0      0.00%     71.71% # Type of FU issued
system.cpu0.iq.FU_type_0::FloatMult                 0      0.00%     71.71% # Type of FU issued
system.cpu0.iq.FU_type_0::FloatDiv                  0      0.00%     71.71% # Type of FU issued
system.cpu0.iq.FU_type_0::FloatSqrt                 0      0.00%     71.71% # Type of FU issued
system.cpu0.iq.FU_type_0::SimdAdd                   0      0.00%     71.71% # Type of FU issued
system.cpu0.iq.FU_type_0::SimdAddAcc                0      0.00%     71.71% # Type of FU issued
system.cpu0.iq.FU_type_0::SimdAlu                   0      0.00%     71.71% # Type of FU issued
system.cpu0.iq.FU_type_0::SimdCmp                   0      0.00%     71.71% # Type of FU issued
system.cpu0.iq.FU_type_0::SimdCvt                   0      0.00%     71.71% # Type of FU issued
system.cpu0.iq.FU_type_0::SimdMisc                  0      0.00%     71.71% # Type of FU issued
system.cpu0.iq.FU_type_0::SimdMult                  0      0.00%     71.71% # Type of FU issued
system.cpu0.iq.FU_type_0::SimdMultAcc               0      0.00%     71.71% # Type of FU issued
system.cpu0.iq.FU_type_0::SimdShift                 0      0.00%     71.71% # Type of FU issued
system.cpu0.iq.FU_type_0::SimdShiftAcc              0      0.00%     71.71% # Type of FU issued
system.cpu0.iq.FU_type_0::SimdSqrt                  0      0.00%     71.71% # Type of FU issued
system.cpu0.iq.FU_type_0::SimdFloatAdd              0      0.00%     71.71% # Type of FU issued
system.cpu0.iq.FU_type_0::SimdFloatAlu              0      0.00%     71.71% # Type of FU issued
system.cpu0.iq.FU_type_0::SimdFloatCmp              0      0.00%     71.71% # Type of FU issued
system.cpu0.iq.FU_type_0::SimdFloatCvt              0      0.00%     71.71% # Type of FU issued
system.cpu0.iq.FU_type_0::SimdFloatDiv              0      0.00%     71.71% # Type of FU issued
system.cpu0.iq.FU_type_0::SimdFloatMisc             3      0.00%     71.71% # Type of FU issued
system.cpu0.iq.FU_type_0::SimdFloatMult             0      0.00%     71.71% # Type of FU issued
system.cpu0.iq.FU_type_0::SimdFloatMultAcc            0      0.00%     71.71% # Type of FU issued
system.cpu0.iq.FU_type_0::SimdFloatSqrt             0      0.00%     71.71% # Type of FU issued
system.cpu0.iq.FU_type_0::MemRead               72087     21.77%     93.48% # Type of FU issued
system.cpu0.iq.FU_type_0::MemWrite              21606      6.52%    100.00% # Type of FU issued
system.cpu0.iq.FU_type_0::IprAccess                 0      0.00%    100.00% # Type of FU issued
system.cpu0.iq.FU_type_0::InstPrefetch              0      0.00%    100.00% # Type of FU issued
system.cpu0.iq.FU_type_0::total                331180                       # Type of FU issued
system.cpu0.iq.rate                          1.125307                       # Inst issue rate
system.cpu0.iq.fu_busy_cnt                      49088                       # FU busy when requested
system.cpu0.iq.fu_busy_rate                  0.148222                       # FU busy rate (busy events/executed inst)
system.cpu0.iq.int_inst_queue_reads            967335                       # Number of integer instruction queue reads
system.cpu0.iq.int_inst_queue_writes           347448                       # Number of integer instruction queue writes
system.cpu0.iq.int_inst_queue_wakeup_accesses       327300                       # Number of integer instruction queue wakeup accesses
system.cpu0.iq.fp_inst_queue_reads                 76                       # Number of floating instruction queue reads
system.cpu0.iq.fp_inst_queue_writes                28                       # Number of floating instruction queue writes
system.cpu0.iq.fp_inst_queue_wakeup_accesses           28                       # Number of floating instruction queue wakeup accesses
system.cpu0.iq.int_alu_accesses                380220                       # Number of integer alu accesses
system.cpu0.iq.fp_alu_accesses                     48                       # Number of floating point alu accesses
system.cpu0.iew.lsq.thread0.forwLoads              56                       # Number of loads that had data forwarded from stores
system.cpu0.iew.lsq.thread0.invAddrLoads            0                       # Number of loads ignored due to an invalid address
system.cpu0.iew.lsq.thread0.squashedLoads         3569                       # Number of loads squashed
system.cpu0.iew.lsq.thread0.ignoredResponses            1                       # Number of memory responses ignored because the instruction is squashed
system.cpu0.iew.lsq.thread0.memOrderViolation           17                       # Number of memory ordering violations
system.cpu0.iew.lsq.thread0.squashedStores         1070                       # Number of stores squashed
system.cpu0.iew.lsq.thread0.invAddrSwpfs            0                       # Number of software prefetches ignored due to an invalid address
system.cpu0.iew.lsq.thread0.blockedLoads            0                       # Number of blocked loads due to partial load-store forwarding
system.cpu0.iew.lsq.thread0.rescheduledLoads           16                       # Number of loads that were rescheduled
system.cpu0.iew.lsq.thread0.cacheBlocked          701                       # Number of times an access to memory failed due to the cache being blocked
system.cpu0.iew.iewIdleCycles                       0                       # Number of cycles IEW is idle
system.cpu0.iew.iewSquashCycles                  1510                       # Number of cycles IEW is squashing
system.cpu0.iew.iewBlockCycles                    623                       # Number of cycles IEW is blocking
system.cpu0.iew.iewUnblockCycles                 2800                       # Number of cycles IEW is unblocking
system.cpu0.iew.iewDispatchedInsts             335206                       # Number of instructions dispatched to IQ
system.cpu0.iew.iewDispSquashedInsts                0                       # Number of squashed instructions skipped by dispatch
system.cpu0.iew.iewDispLoadInsts                72903                       # Number of dispatched load instructions
system.cpu0.iew.iewDispStoreInsts               22159                       # Number of dispatched store instructions
system.cpu0.iew.iewDispNonSpecInsts               103                       # Number of dispatched non-speculative instructions
system.cpu0.iew.iewIQFullEvents                     5                       # Number of times the IQ has become full, causing a stall
system.cpu0.iew.iewLSQFullEvents                 2793                       # Number of times the LSQ has become full, causing a stall
system.cpu0.iew.memOrderViolationEvents            17                       # Number of memory order violations
system.cpu0.iew.predictedTakenIncorrect           525                       # Number of branches that were predicted taken incorrectly
system.cpu0.iew.predictedNotTakenIncorrect         1009                       # Number of branches that were predicted not taken incorrectly
system.cpu0.iew.branchMispredicts                1534                       # Number of branch mispredicts detected at execute
system.cpu0.iew.iewExecutedInsts               328339                       # Number of executed instructions
system.cpu0.iew.iewExecLoadInsts                70798                       # Number of load instructions executed
system.cpu0.iew.iewExecSquashedInsts             2841                       # Number of squashed instructions skipped in execute
system.cpu0.iew.exec_swp                            0                       # number of swp insts executed
system.cpu0.iew.exec_nop                           15                       # number of nop insts executed
system.cpu0.iew.exec_refs                       92196                       # number of memory reference insts executed
system.cpu0.iew.exec_branches                   25830                       # Number of branches executed
system.cpu0.iew.exec_stores                     21398                       # Number of stores executed
system.cpu0.iew.exec_rate                    1.115653                       # Inst execution rate
system.cpu0.iew.wb_sent                        327467                       # cumulative count of insts sent to commit
system.cpu0.iew.wb_count                       327328                       # cumulative count of insts written-back
system.cpu0.iew.wb_producers                   218144                       # num instructions producing a value
system.cpu0.iew.wb_consumers                   313794                       # num instructions consuming a value
system.cpu0.iew.wb_penalized                        0                       # number of instrctions required to write to 'other' IQ
system.cpu0.iew.wb_rate                      1.112218                       # insts written-back per cycle
system.cpu0.iew.wb_fanout                    0.695182                       # average fanout of values written-back
system.cpu0.iew.wb_penalized_rate                   0                       # fraction of instructions written-back that wrote to 'other' IQ
system.cpu0.commit.commitSquashedInsts           9352                       # The number of squashed insts skipped by commit
system.cpu0.commit.commitNonSpecStalls            198                       # The number of times commit has been forced to stall to communicate backwards
system.cpu0.commit.branchMispredicts             1473                       # The number of times a branch was mispredicted
system.cpu0.commit.committed_per_cycle::samples       253116                       # Number of insts commited each cycle
system.cpu0.commit.committed_per_cycle::mean     1.275787                       # Number of insts commited each cycle
system.cpu0.commit.committed_per_cycle::stdev     2.125493                       # Number of insts commited each cycle
system.cpu0.commit.committed_per_cycle::underflows            0      0.00%      0.00% # Number of insts commited each cycle
system.cpu0.commit.committed_per_cycle::0       138061     54.54%     54.54% # Number of insts commited each cycle
system.cpu0.commit.committed_per_cycle::1        47197     18.65%     73.19% # Number of insts commited each cycle
system.cpu0.commit.committed_per_cycle::2        24668      9.75%     82.94% # Number of insts commited each cycle
system.cpu0.commit.committed_per_cycle::3        19408      7.67%     90.60% # Number of insts commited each cycle
system.cpu0.commit.committed_per_cycle::4         1994      0.79%     91.39% # Number of insts commited each cycle
system.cpu0.commit.committed_per_cycle::5         2125      0.84%     92.23% # Number of insts commited each cycle
system.cpu0.commit.committed_per_cycle::6         3790      1.50%     93.73% # Number of insts commited each cycle
system.cpu0.commit.committed_per_cycle::7          160      0.06%     93.79% # Number of insts commited each cycle
system.cpu0.commit.committed_per_cycle::8        15713      6.21%    100.00% # Number of insts commited each cycle
system.cpu0.commit.committed_per_cycle::overflows            0      0.00%    100.00% # Number of insts commited each cycle
system.cpu0.commit.committed_per_cycle::min_value            0                       # Number of insts commited each cycle
system.cpu0.commit.committed_per_cycle::max_value            8                       # Number of insts commited each cycle
system.cpu0.commit.committed_per_cycle::total       253116                       # Number of insts commited each cycle
system.cpu0.commit.committedInsts              308956                       # Number of instructions committed
system.cpu0.commit.committedOps                322922                       # Number of ops (including micro ops) committed
system.cpu0.commit.swp_count                        0                       # Number of s/w prefetches committed
system.cpu0.commit.refs                         90423                       # Number of memory references committed
system.cpu0.commit.loads                        69334                       # Number of loads committed
system.cpu0.commit.membars                        118                       # Number of memory barriers committed
system.cpu0.commit.branches                     25239                       # Number of branches committed
system.cpu0.commit.fp_insts                        28                       # Number of committed floating point instructions.
system.cpu0.commit.int_insts                   298209                       # Number of committed integer instructions.
system.cpu0.commit.function_calls                 304                       # Number of function calls committed.
system.cpu0.commit.op_class_0::No_OpClass            0      0.00%      0.00% # Class of committed instruction
system.cpu0.commit.op_class_0::IntAlu          181270     56.13%     56.13% # Class of committed instruction
system.cpu0.commit.op_class_0::IntMult          51226     15.86%     72.00% # Class of committed instruction
system.cpu0.commit.op_class_0::IntDiv               0      0.00%     72.00% # Class of committed instruction
system.cpu0.commit.op_class_0::FloatAdd             0      0.00%     72.00% # Class of committed instruction
system.cpu0.commit.op_class_0::FloatCmp             0      0.00%     72.00% # Class of committed instruction
[...]
system.cpu3.dcache.ReadReq_avg_mshr_miss_latency::total 12117.411552                       # average ReadReq mshr miss latency
system.cpu3.dcache.WriteReq_avg_mshr_miss_latency::cpu3.data 14708.333333                       # average WriteReq mshr miss latency
system.cpu3.dcache.WriteReq_avg_mshr_miss_latency::total 14708.333333                       # average WriteReq mshr miss latency
system.cpu3.dcache.SoftPFReq_avg_mshr_miss_latency::cpu3.data        62250                       # average SoftPFReq mshr miss latency
system.cpu3.dcache.SoftPFReq_avg_mshr_miss_latency::total        62250                       # average SoftPFReq mshr miss latency
system.cpu3.dcache.LoadLockedReq_avg_mshr_miss_latency::cpu3.data         9500                       # average LoadLockedReq mshr miss latency
system.cpu3.dcache.LoadLockedReq_avg_mshr_miss_latency::total         9500                       # average LoadLockedReq mshr miss latency
system.cpu3.dcache.StoreCondReq_avg_mshr_miss_latency::cpu3.data         9000                       # average StoreCondReq mshr miss latency
system.cpu3.dcache.StoreCondReq_avg_mshr_miss_latency::total         9000                       # average StoreCondReq mshr miss latency
system.cpu3.dcache.demand_avg_mshr_miss_latency::cpu3.data 12578.703264                       # average overall mshr miss latency
system.cpu3.dcache.demand_avg_mshr_miss_latency::total 12578.703264                       # average overall mshr miss latency
system.cpu3.dcache.overall_avg_mshr_miss_latency::cpu3.data 12725.659763                       # average overall mshr miss latency
system.cpu3.dcache.overall_avg_mshr_miss_latency::total 12725.659763                       # average overall mshr miss latency
system.cpu3.dcache.no_allocate_misses               0                       # Number of misses that were no-allocate
system.cpu3.icache.tags.replacements                0                       # number of replacements
system.cpu3.icache.tags.tagsinuse           18.565044                       # Cycle average of tags in use
system.cpu3.icache.tags.total_refs              71834                       # Total number of references to valid blocks.
system.cpu3.icache.tags.sampled_refs               53                       # Sample count of references to valid blocks.
system.cpu3.icache.tags.avg_refs          1355.358491                       # Average number of references to valid blocks.
system.cpu3.icache.tags.warmup_cycle                0                       # Cycle when the warmup percentage was hit.
system.cpu3.icache.tags.occ_blocks::cpu3.inst    18.565044                       # Average occupied blocks per requestor
system.cpu3.icache.tags.occ_percent::cpu3.inst     0.036260                       # Average percentage of cache occupancy
system.cpu3.icache.tags.occ_percent::total     0.036260                       # Average percentage of cache occupancy
system.cpu3.icache.tags.occ_task_id_blocks::1024           53                       # Occupied blocks per task id
system.cpu3.icache.tags.age_task_id_blocks_1024::0           12                       # Occupied blocks per task id
system.cpu3.icache.tags.age_task_id_blocks_1024::1           41                       # Occupied blocks per task id
system.cpu3.icache.tags.occ_task_id_percent::1024     0.103516                       # Percentage of cache occupancy per task id
system.cpu3.icache.tags.tag_accesses           143863                       # Number of tag accesses
system.cpu3.icache.tags.data_accesses          143863                       # Number of data accesses
system.cpu3.icache.ReadReq_hits::cpu3.inst        71834                       # number of ReadReq hits
system.cpu3.icache.ReadReq_hits::total          71834                       # number of ReadReq hits
system.cpu3.icache.demand_hits::cpu3.inst        71834                       # number of demand (read+write) hits
system.cpu3.icache.demand_hits::total           71834                       # number of demand (read+write) hits
system.cpu3.icache.overall_hits::cpu3.inst        71834                       # number of overall hits
system.cpu3.icache.overall_hits::total          71834                       # number of overall hits
system.cpu3.icache.ReadReq_misses::cpu3.inst           71                       # number of ReadReq misses
system.cpu3.icache.ReadReq_misses::total           71                       # number of ReadReq misses
system.cpu3.icache.demand_misses::cpu3.inst           71                       # number of demand (read+write) misses
system.cpu3.icache.demand_misses::total            71                       # number of demand (read+write) misses
system.cpu3.icache.overall_misses::cpu3.inst           71                       # number of overall misses
system.cpu3.icache.overall_misses::total           71                       # number of overall misses
system.cpu3.icache.ReadReq_miss_latency::cpu3.inst      4433750                       # number of ReadReq miss cycles
system.cpu3.icache.ReadReq_miss_latency::total      4433750                       # number of ReadReq miss cycles
system.cpu3.icache.demand_miss_latency::cpu3.inst      4433750                       # number of demand (read+write) miss cycles
system.cpu3.icache.demand_miss_latency::total      4433750                       # number of demand (read+write) miss cycles
system.cpu3.icache.overall_miss_latency::cpu3.inst      4433750                       # number of overall miss cycles
system.cpu3.icache.overall_miss_latency::total      4433750                       # number of overall miss cycles
system.cpu3.icache.ReadReq_accesses::cpu3.inst        71905                       # number of ReadReq accesses(hits+misses)
system.cpu3.icache.ReadReq_accesses::total        71905                       # number of ReadReq accesses(hits+misses)
system.cpu3.icache.demand_accesses::cpu3.inst        71905                       # number of demand (read+write) accesses
system.cpu3.icache.demand_accesses::total        71905                       # number of demand (read+write) accesses
system.cpu3.icache.overall_accesses::cpu3.inst        71905                       # number of overall (read+write) accesses
system.cpu3.icache.overall_accesses::total        71905                       # number of overall (read+write) accesses
system.cpu3.icache.ReadReq_miss_rate::cpu3.inst     0.000987                       # miss rate for ReadReq accesses
system.cpu3.icache.ReadReq_miss_rate::total     0.000987                       # miss rate for ReadReq accesses
system.cpu3.icache.demand_miss_rate::cpu3.inst     0.000987                       # miss rate for demand accesses
system.cpu3.icache.demand_miss_rate::total     0.000987                       # miss rate for demand accesses
system.cpu3.icache.overall_miss_rate::cpu3.inst     0.000987                       # miss rate for overall accesses
system.cpu3.icache.overall_miss_rate::total     0.000987                       # miss rate for overall accesses
system.cpu3.icache.ReadReq_avg_miss_latency::cpu3.inst 62447.183099                       # average ReadReq miss latency
system.cpu3.icache.ReadReq_avg_miss_latency::total 62447.183099                       # average ReadReq miss latency
system.cpu3.icache.demand_avg_miss_latency::cpu3.inst 62447.183099                       # average overall miss latency
system.cpu3.icache.demand_avg_miss_latency::total 62447.183099                       # average overall miss latency
system.cpu3.icache.overall_avg_miss_latency::cpu3.inst 62447.183099                       # average overall miss latency
system.cpu3.icache.overall_avg_miss_latency::total 62447.183099                       # average overall miss latency
system.cpu3.icache.blocked_cycles::no_mshrs         1080                       # number of cycles access was blocked
system.cpu3.icache.blocked_cycles::no_targets          122                       # number of cycles access was blocked
system.cpu3.icache.blocked::no_mshrs               11                       # number of cycles access was blocked
system.cpu3.icache.blocked::no_targets              1                       # number of cycles access was blocked
system.cpu3.icache.avg_blocked_cycles::no_mshrs    98.181818                       # average number of cycles each access was blocked
system.cpu3.icache.avg_blocked_cycles::no_targets          122                       # average number of cycles each access was blocked
system.cpu3.icache.fast_writes                      0                       # number of fast writes performed
system.cpu3.icache.cache_copies                     0                       # number of cache copies performed
system.cpu3.icache.ReadReq_mshr_hits::cpu3.inst           18                       # number of ReadReq MSHR hits
system.cpu3.icache.ReadReq_mshr_hits::total           18                       # number of ReadReq MSHR hits
system.cpu3.icache.demand_mshr_hits::cpu3.inst           18                       # number of demand (read+write) MSHR hits
system.cpu3.icache.demand_mshr_hits::total           18                       # number of demand (read+write) MSHR hits
system.cpu3.icache.overall_mshr_hits::cpu3.inst           18                       # number of overall MSHR hits
system.cpu3.icache.overall_mshr_hits::total           18                       # number of overall MSHR hits
system.cpu3.icache.ReadReq_mshr_misses::cpu3.inst           53                       # number of ReadReq MSHR misses
system.cpu3.icache.ReadReq_mshr_misses::total           53                       # number of ReadReq MSHR misses
system.cpu3.icache.demand_mshr_misses::cpu3.inst           53                       # number of demand (read+write) MSHR misses
system.cpu3.icache.demand_mshr_misses::total           53                       # number of demand (read+write) MSHR misses
system.cpu3.icache.overall_mshr_misses::cpu3.inst           53                       # number of overall MSHR misses
system.cpu3.icache.overall_mshr_misses::total           53                       # number of overall MSHR misses
system.cpu3.icache.ReadReq_mshr_miss_latency::cpu3.inst      3171000                       # number of ReadReq MSHR miss cycles
system.cpu3.icache.ReadReq_mshr_miss_latency::total      3171000                       # number of ReadReq MSHR miss cycles
system.cpu3.icache.demand_mshr_miss_latency::cpu3.inst      3171000                       # number of demand (read+write) MSHR miss cycles
system.cpu3.icache.demand_mshr_miss_latency::total      3171000                       # number of demand (read+write) MSHR miss cycles
system.cpu3.icache.overall_mshr_miss_latency::cpu3.inst      3171000                       # number of overall MSHR miss cycles
system.cpu3.icache.overall_mshr_miss_latency::total      3171000                       # number of overall MSHR miss cycles
system.cpu3.icache.ReadReq_mshr_miss_rate::cpu3.inst     0.000737                       # mshr miss rate for ReadReq accesses
system.cpu3.icache.ReadReq_mshr_miss_rate::total     0.000737                       # mshr miss rate for ReadReq accesses
system.cpu3.icache.demand_mshr_miss_rate::cpu3.inst     0.000737                       # mshr miss rate for demand accesses
system.cpu3.icache.demand_mshr_miss_rate::total     0.000737                       # mshr miss rate for demand accesses
system.cpu3.icache.overall_mshr_miss_rate::cpu3.inst     0.000737                       # mshr miss rate for overall accesses
system.cpu3.icache.overall_mshr_miss_rate::total     0.000737                       # mshr miss rate for overall accesses
system.cpu3.icache.ReadReq_avg_mshr_miss_latency::cpu3.inst 59830.188679                       # average ReadReq mshr miss latency
system.cpu3.icache.ReadReq_avg_mshr_miss_latency::total 59830.188679                       # average ReadReq mshr miss latency
system.cpu3.icache.demand_avg_mshr_miss_latency::cpu3.inst 59830.188679                       # average overall mshr miss latency
system.cpu3.icache.demand_avg_mshr_miss_latency::total 59830.188679                       # average overall mshr miss latency
system.cpu3.icache.overall_avg_mshr_miss_latency::cpu3.inst 59830.188679                       # average overall mshr miss latency
system.cpu3.icache.overall_avg_mshr_miss_latency::total 59830.188679                       # average overall mshr miss latency
system.cpu3.icache.no_allocate_misses               0                       # Number of misses that were no-allocate
system.membus.trans_dist::ReadReq                1812                       # Transaction distribution
system.membus.trans_dist::ReadResp               1811                       # Transaction distribution
system.membus.trans_dist::Writeback                87                       # Transaction distribution
system.membus.trans_dist::UpgradeReq               11                       # Transaction distribution
system.membus.trans_dist::SCUpgradeReq              9                       # Transaction distribution
system.membus.trans_dist::UpgradeResp              20                       # Transaction distribution
system.membus.trans_dist::ReadExReq               929                       # Transaction distribution
system.membus.trans_dist::ReadExResp              929                       # Transaction distribution
system.membus.pkt_count_system.cpu0.icache.mem_side::system.mem_ctrls.port         1243                       # Packet count per connected master and slave (bytes)
system.membus.pkt_count_system.cpu0.dcache.mem_side::system.mem_ctrls.port         1978                       # Packet count per connected master and slave (bytes)
system.membus.pkt_count_system.cpu1.icache.mem_side::system.mem_ctrls.port          110                       # Packet count per connected master and slave (bytes)
system.membus.pkt_count_system.cpu1.dcache.mem_side::system.mem_ctrls.port          368                       # Packet count per connected master and slave (bytes)
system.membus.pkt_count_system.cpu2.icache.mem_side::system.mem_ctrls.port          108                       # Packet count per connected master and slave (bytes)
system.membus.pkt_count_system.cpu2.dcache.mem_side::system.mem_ctrls.port          376                       # Packet count per connected master and slave (bytes)
system.membus.pkt_count_system.cpu3.icache.mem_side::system.mem_ctrls.port          106                       # Packet count per connected master and slave (bytes)
system.membus.pkt_count_system.cpu3.dcache.mem_side::system.mem_ctrls.port          370                       # Packet count per connected master and slave (bytes)
system.membus.pkt_count::total                   4659                       # Packet count per connected master and slave (bytes)
system.membus.pkt_size_system.cpu0.icache.mem_side::system.mem_ctrls.port        39744                       # Cumulative packet size per connected master and slave (bytes)
system.membus.pkt_size_system.cpu0.dcache.mem_side::system.mem_ctrls.port        65536                       # Cumulative packet size per connected master and slave (bytes)
system.membus.pkt_size_system.cpu1.icache.mem_side::system.mem_ctrls.port         3520                       # Cumulative packet size per connected master and slave (bytes)
system.membus.pkt_size_system.cpu1.dcache.mem_side::system.mem_ctrls.port         1408                       # Cumulative packet size per connected master and slave (bytes)
system.membus.pkt_size_system.cpu2.icache.mem_side::system.mem_ctrls.port         3456                       # Cumulative packet size per connected master and slave (bytes)
system.membus.pkt_size_system.cpu2.dcache.mem_side::system.mem_ctrls.port         2176                       # Cumulative packet size per connected master and slave (bytes)
system.membus.pkt_size_system.cpu3.icache.mem_side::system.mem_ctrls.port         3392                       # Cumulative packet size per connected master and slave (bytes)
system.membus.pkt_size_system.cpu3.dcache.mem_side::system.mem_ctrls.port         1792                       # Cumulative packet size per connected master and slave (bytes)
system.membus.pkt_size::total                  121024                       # Cumulative packet size per connected master and slave (bytes)
system.membus.snoops                              949                       # Total snoops (count)
system.membus.snoop_fanout::samples              2848                       # Request fanout histogram
system.membus.snoop_fanout::mean                    7                       # Request fanout histogram
system.membus.snoop_fanout::stdev                   0                       # Request fanout histogram
system.membus.snoop_fanout::underflows              0      0.00%      0.00% # Request fanout histogram
system.membus.snoop_fanout::0                       0      0.00%      0.00% # Request fanout histogram
system.membus.snoop_fanout::1                       0      0.00%      0.00% # Request fanout histogram
system.membus.snoop_fanout::2                       0      0.00%      0.00% # Request fanout histogram
system.membus.snoop_fanout::3                       0      0.00%      0.00% # Request fanout histogram
system.membus.snoop_fanout::4                       0      0.00%      0.00% # Request fanout histogram
system.membus.snoop_fanout::5                       0      0.00%      0.00% # Request fanout histogram
system.membus.snoop_fanout::6                       0      0.00%      0.00% # Request fanout histogram
system.membus.snoop_fanout::7                    2848    100.00%    100.00% # Request fanout histogram
system.membus.snoop_fanout::8                       0      0.00%    100.00% # Request fanout histogram
system.membus.snoop_fanout::overflows               0      0.00%    100.00% # Request fanout histogram
system.membus.snoop_fanout::min_value               7                       # Request fanout histogram
system.membus.snoop_fanout::max_value               7                       # Request fanout histogram
system.membus.snoop_fanout::total                2848                       # Request fanout histogram
system.membus.reqLayer0.occupancy             3988497                       # Layer occupancy (ticks)
system.membus.reqLayer0.utilization               2.7                       # Layer utilization (%)
system.membus.respLayer1.occupancy            3312250                       # Layer occupancy (ticks)
system.membus.respLayer1.utilization              2.3                       # Layer utilization (%)
system.membus.respLayer2.occupancy            4995995                       # Layer occupancy (ticks)
system.membus.respLayer2.utilization              3.4                       # Layer utilization (%)
system.membus.respLayer5.occupancy             296000                       # Layer occupancy (ticks)
system.membus.respLayer5.utilization              0.2                       # Layer utilization (%)
system.membus.respLayer6.occupancy            1750718                       # Layer occupancy (ticks)
system.membus.respLayer6.utilization              1.2                       # Layer utilization (%)
system.membus.respLayer9.occupancy             291500                       # Layer occupancy (ticks)
system.membus.respLayer9.utilization              0.2                       # Layer utilization (%)
system.membus.respLayer10.occupancy           1730216                       # Layer occupancy (ticks)
system.membus.respLayer10.utilization             1.2                       # Layer utilization (%)
system.membus.respLayer13.occupancy            284000                       # Layer occupancy (ticks)
system.membus.respLayer13.utilization             0.2                       # Layer utilization (%)
system.membus.respLayer14.occupancy           1715727                       # Layer occupancy (ticks)
system.membus.respLayer14.utilization             1.2                       # Layer utilization (%)

---------- End Simulation Statistics   ----------
