
---------- Begin Simulation Statistics ----------
sim_seconds                                  0.000098                       # Number of seconds simulated
sim_ticks                                    97799000                       # Number of ticks simulated
final_tick                                   97799000                       # Number of ticks from beginning of simulation (restored from checkpoints and never reset)
sim_freq                                 1000000000000                       # Frequency of simulated ticks
host_inst_rate                                 141987                       # Simulator instruction rate (inst/s)
host_op_rate                                   144351                       # Simulator op (including micro ops) rate (op/s)
host_tick_rate                               12236518                       # Simulator tick rate (ticks/s)
host_mem_usage                                 668720                       # Number of bytes of host memory used
host_seconds                                     7.99                       # Real time elapsed on the host
sim_insts                                     1134809                       # Number of instructions simulated
sim_ops                                       1153707                       # Number of ops (including micro ops) simulated
system.voltage_domain.voltage                       1                       # Voltage in Volts
system.clk_domain.clock                          1000                       # Clock period in ticks
system.mem_ctrls.bytes_read::cpu0.inst          38912                       # Number of bytes read from this memory
system.mem_ctrls.bytes_read::cpu0.data          61120                       # Number of bytes read from this memory
system.mem_ctrls.bytes_read::cpu1.inst           3392                       # Number of bytes read from this memory
system.mem_ctrls.bytes_read::cpu1.data           1280                       # Number of bytes read from this memory
system.mem_ctrls.bytes_read::cpu2.inst           3456                       # Number of bytes read from this memory
system.mem_ctrls.bytes_read::cpu2.data           1344                       # Number of bytes read from this memory
system.mem_ctrls.bytes_read::cpu3.inst           3520                       # Number of bytes read from this memory
system.mem_ctrls.bytes_read::cpu3.data           1472                       # Number of bytes read from this memory
system.mem_ctrls.bytes_read::cpu4.inst           3264                       # Number of bytes read from this memory
system.mem_ctrls.bytes_read::cpu4.data           1984                       # Number of bytes read from this memory
system.mem_ctrls.bytes_read::cpu5.inst           3520                       # Number of bytes read from this memory
system.mem_ctrls.bytes_read::cpu5.data           1600                       # Number of bytes read from this memory
system.mem_ctrls.bytes_read::cpu6.inst           3328                       # Number of bytes read from this memory
system.mem_ctrls.bytes_read::cpu6.data           1600                       # Number of bytes read from this memory
system.mem_ctrls.bytes_read::cpu7.inst           3264                       # Number of bytes read from this memory
system.mem_ctrls.bytes_read::cpu7.data           1600                       # Number of bytes read from this memory
system.mem_ctrls.bytes_read::total             134656                       # Number of bytes read from this memory
system.mem_ctrls.bytes_inst_read::cpu0.inst        38912                       # Number of instructions bytes read from this memory
system.mem_ctrls.bytes_inst_read::cpu1.inst         3392                       # Number of instructions bytes read from this memory
system.mem_ctrls.bytes_inst_read::cpu2.inst         3456                       # Number of instructions bytes read from this memory
system.mem_ctrls.bytes_inst_read::cpu3.inst         3520                       # Number of instructions bytes read from this memory
system.mem_ctrls.bytes_inst_read::cpu4.inst         3264                       # Number of instructions bytes read from this memory
system.mem_ctrls.bytes_inst_read::cpu5.inst         3520                       # Number of instructions bytes read from this memory
system.mem_ctrls.bytes_inst_read::cpu6.inst         3328                       # Number of instructions bytes read from this memory
system.mem_ctrls.bytes_inst_read::cpu7.inst         3264                       # Number of instructions bytes read from this memory
system.mem_ctrls.bytes_inst_read::total         62656                       # Number of instructions bytes read from this memory
system.mem_ctrls.bytes_written::writebacks         5888                       # Number of bytes written to this memory
system.mem_ctrls.bytes_written::total            5888                       # Number of bytes written to this memory
system.mem_ctrls.num_reads::cpu0.inst             608                       # Number of read requests responded to by this memory
system.mem_ctrls.num_reads::cpu0.data             955                       # Number of read requests responded to by this memory
system.mem_ctrls.num_reads::cpu1.inst              53                       # Number of read requests responded to by this memory
system.mem_ctrls.num_reads::cpu1.data              20                       # Number of read requests responded to by this memory
system.mem_ctrls.num_reads::cpu2.inst              54                       # Number of read requests responded to by this memory
system.mem_ctrls.num_reads::cpu2.data              21                       # Number of read requests responded to by this memory
system.mem_ctrls.num_reads::cpu3.inst              55                       # Number of read requests responded to by this memory
system.mem_ctrls.num_reads::cpu3.data              23                       # Number of read requests responded to by this memory
system.mem_ctrls.num_reads::cpu4.inst              51                       # Number of read requests responded to by this memory
system.mem_ctrls.num_reads::cpu4.data              31                       # Number of read requests responded to by this memory
system.mem_ctrls.num_reads::cpu5.inst              55                       # Number of read requests responded to by this memory
system.mem_ctrls.num_reads::cpu5.data              25                       # Number of read requests responded to by this memory
system.mem_ctrls.num_reads::cpu6.inst              52                       # Number of read requests responded to by this memory
system.mem_ctrls.num_reads::cpu6.data              25                       # Number of read requests responded to by this memory
system.mem_ctrls.num_reads::cpu7.inst              51                       # Number of read requests responded to by this memory
system.mem_ctrls.num_reads::cpu7.data              25                       # Number of read requests responded to by this memory
system.mem_ctrls.num_reads::total                2104                       # Number of read requests responded to by this memory
system.mem_ctrls.num_writes::writebacks            92                       # Number of write requests responded to by this memory
system.mem_ctrls.num_writes::total                 92                       # Number of write requests responded to by this memory
system.mem_ctrls.bw_read::cpu0.inst         397877279                       # Total read bandwidth from this memory (bytes/s)
system.mem_ctrls.bw_read::cpu0.data         624955265                       # Total read bandwidth from this memory (bytes/s)
system.mem_ctrls.bw_read::cpu1.inst          34683381                       # Total read bandwidth from this memory (bytes/s)
system.mem_ctrls.bw_read::cpu1.data          13088068                       # Total read bandwidth from this memory (bytes/s)
system.mem_ctrls.bw_read::cpu2.inst          35337785                       # Total read bandwidth from this memory (bytes/s)
system.mem_ctrls.bw_read::cpu2.data          13742472                       # Total read bandwidth from this memory (bytes/s)
system.mem_ctrls.bw_read::cpu3.inst          35992188                       # Total read bandwidth from this memory (bytes/s)
system.mem_ctrls.bw_read::cpu3.data          15051279                       # Total read bandwidth from this memory (bytes/s)
system.mem_ctrls.bw_read::cpu4.inst          33374574                       # Total read bandwidth from this memory (bytes/s)
system.mem_ctrls.bw_read::cpu4.data          20286506                       # Total read bandwidth from this memory (bytes/s)
system.mem_ctrls.bw_read::cpu5.inst          35992188                       # Total read bandwidth from this memory (bytes/s)
system.mem_ctrls.bw_read::cpu5.data          16360085                       # Total read bandwidth from this memory (bytes/s)
system.mem_ctrls.bw_read::cpu6.inst          34028978                       # Total read bandwidth from this memory (bytes/s)
system.mem_ctrls.bw_read::cpu6.data          16360085                       # Total read bandwidth from this memory (bytes/s)
system.mem_ctrls.bw_read::cpu7.inst          33374574                       # Total read bandwidth from this memory (bytes/s)
system.mem_ctrls.bw_read::cpu7.data          16360085                       # Total read bandwidth from this memory (bytes/s)
system.mem_ctrls.bw_read::total            1376864794                       # Total read bandwidth from this memory (bytes/s)
system.mem_ctrls.bw_inst_read::cpu0.inst    397877279                       # Instruction read bandwidth from this memory (bytes/s)
system.mem_ctrls.bw_inst_read::cpu1.inst     34683381                       # Instruction read bandwidth from this memory (bytes/s)
system.mem_ctrls.bw_inst_read::cpu2.inst     35337785                       # Instruction read bandwidth from this memory (bytes/s)
system.mem_ctrls.bw_inst_read::cpu3.inst     35992188                       # Instruction read bandwidth from this memory (bytes/s)
system.mem_ctrls.bw_inst_read::cpu4.inst     33374574                       # Instruction read bandwidth from this memory (bytes/s)
system.mem_ctrls.bw_inst_read::cpu5.inst     35992188                       # Instruction read bandwidth from this memory (bytes/s)
system.mem_ctrls.bw_inst_read::cpu6.inst     34028978                       # Instruction read bandwidth from this memory (bytes/s)
system.mem_ctrls.bw_inst_read::cpu7.inst     33374574                       # Instruction read bandwidth from this memory (bytes/s)
system.mem_ctrls.bw_inst_read::total        640660947                       # Instruction read bandwidth from this memory (bytes/s)
system.mem_ctrls.bw_write::writebacks        60205115                       # Write bandwidth from this memory (bytes/s)
system.mem_ctrls.bw_write::total             60205115                       # Write bandwidth from this memory (bytes/s)
system.mem_ctrls.bw_total::writebacks        60205115                       # Total bandwidth to/from this memory (bytes/s)
system.mem_ctrls.bw_total::cpu0.inst        397877279                       # Total bandwidth to/from this memory (bytes/s)
system.mem_ctrls.bw_total::cpu0.data        624955265                       # Total bandwidth to/from this memory (bytes/s)
system.mem_ctrls.bw_total::cpu1.inst         34683381                       # Total bandwidth to/from this memory (bytes/s)
system.mem_ctrls.bw_total::cpu1.data         13088068                       # Total bandwidth to/from this memory (bytes/s)
system.mem_ctrls.bw_total::cpu2.inst         35337785                       # Total bandwidth to/from this memory (bytes/s)
system.mem_ctrls.bw_total::cpu2.data         13742472                       # Total bandwidth to/from this memory (bytes/s)
system.mem_ctrls.bw_total::cpu3.inst         35992188                       # Total bandwidth to/from this memory (bytes/s)
system.mem_ctrls.bw_total::cpu3.data         15051279                       # Total bandwidth to/from this memory (bytes/s)
system.mem_ctrls.bw_total::cpu4.inst         33374574                       # Total bandwidth to/from this memory (bytes/s)
system.mem_ctrls.bw_total::cpu4.data         20286506                       # Total bandwidth to/from this memory (bytes/s)
system.mem_ctrls.bw_total::cpu5.inst         35992188                       # Total bandwidth to/from this memory (bytes/s)
system.mem_ctrls.bw_total::cpu5.data         16360085                       # Total bandwidth to/from this memory (bytes/s)
system.mem_ctrls.bw_total::cpu6.inst         34028978                       # Total bandwidth to/from this memory (bytes/s)
system.mem_ctrls.bw_total::cpu6.data         16360085                       # Total bandwidth to/from this memory (bytes/s)
system.mem_ctrls.bw_total::cpu7.inst         33374574                       # Total bandwidth to/from this memory (bytes/s)
system.mem_ctrls.bw_total::cpu7.data         16360085                       # Total bandwidth to/from this memory (bytes/s)
system.mem_ctrls.bw_total::total           1437069909                       # Total bandwidth to/from this memory (bytes/s)
system.mem_ctrls.readReqs                        2105                       # Number of read requests accepted
system.mem_ctrls.writeReqs                         92                       # Number of write requests accepted
system.mem_ctrls.readBursts                      2105                       # Number of DRAM read bursts, including those serviced by the write queue
system.mem_ctrls.writeBursts                       92                       # Number of DRAM write bursts, including those merged in the write queue
system.mem_ctrls.bytesReadDRAM                 131968                       # Total number of bytes read from DRAM
system.mem_ctrls.bytesReadWrQ                    2752                       # Total number of bytes read from write queue
system.mem_ctrls.bytesWritten                    4288                       # Total number of bytes written to DRAM
system.mem_ctrls.bytesReadSys                  134720                       # Total read bytes from the system interface side
system.mem_ctrls.bytesWrittenSys                 5888                       # Total written bytes from the system interface side
system.mem_ctrls.servicedByWrQ                     43                       # Number of DRAM read bursts serviced by the write queue
system.mem_ctrls.mergedWrBursts                     2                       # Number of DRAM write bursts merged with an existing one
system.mem_ctrls.neitherReadNorWriteReqs           16                       # Number of requests that are neither read nor write
system.mem_ctrls.perBankRdBursts::0               208                       # Per bank write bursts
system.mem_ctrls.perBankRdBursts::1               358                       # Per bank write bursts
system.mem_ctrls.perBankRdBursts::2               221                       # Per bank write bursts
system.mem_ctrls.perBankRdBursts::3               256                       # Per bank write bursts
system.mem_ctrls.perBankRdBursts::4               178                       # Per bank write bursts
system.mem_ctrls.perBankRdBursts::5               187                       # Per bank write bursts
system.mem_ctrls.perBankRdBursts::6               249                       # Per bank write bursts
system.mem_ctrls.perBankRdBursts::7               166                       # Per bank write bursts
system.mem_ctrls.perBankRdBursts::8                25                       # Per bank write bursts
system.mem_ctrls.perBankRdBursts::9                10                       # Per bank write bursts
system.mem_ctrls.perBankRdBursts::10                0                       # Per bank write bursts
system.mem_ctrls.perBankRdBursts::11               14                       # Per bank write bursts
system.mem_ctrls.perBankRdBursts::12                9                       # Per bank write bursts
system.mem_ctrls.perBankRdBursts::13               38                       # Per bank write bursts
system.mem_ctrls.perBankRdBursts::14               40                       # Per bank write bursts
system.mem_ctrls.perBankRdBursts::15              103                       # Per bank write bursts
system.mem_ctrls.perBankWrBursts::0                 1                       # Per bank write bursts
system.mem_ctrls.perBankWrBursts::1                 1                       # Per bank write bursts
system.mem_ctrls.perBankWrBursts::2                 4                       # Per bank write bursts
system.mem_ctrls.perBankWrBursts::3                21                       # Per bank write bursts
system.mem_ctrls.perBankWrBursts::4                 1                       # Per bank write bursts
system.mem_ctrls.perBankWrBursts::5                 1                       # Per bank write bursts
system.mem_ctrls.perBankWrBursts::6                 0                       # Per bank write bursts
system.mem_ctrls.perBankWrBursts::7                10                       # Per bank write bursts
system.mem_ctrls.perBankWrBursts::8                 1                       # Per bank write bursts
system.mem_ctrls.perBankWrBursts::9                 0                       # Per bank write bursts
system.mem_ctrls.perBankWrBursts::10                0                       # Per bank write bursts
system.mem_ctrls.perBankWrBursts::11                0                       # Per bank write bursts
system.mem_ctrls.perBankWrBursts::12                0                       # Per bank write bursts
system.mem_ctrls.perBankWrBursts::13                0                       # Per bank write bursts
system.mem_ctrls.perBankWrBursts::14                0                       # Per bank write bursts
system.mem_ctrls.perBankWrBursts::15               27                       # Per bank write bursts
system.mem_ctrls.numRdRetry                         0                       # Number of times read queue was full causing retry
system.mem_ctrls.numWrRetry                         0                       # Number of times write queue was full causing retry
system.mem_ctrls.totGap                      97790500                       # Total gap between requests
system.mem_ctrls.readPktSize::0                     0                       # Read request sizes (log2)
system.mem_ctrls.readPktSize::1                     0                       # Read request sizes (log2)
system.mem_ctrls.readPktSize::2                     0                       # Read request sizes (log2)
system.mem_ctrls.readPktSize::3                     0                       # Read request sizes (log2)
system.mem_ctrls.readPktSize::4                     0                       # Read request sizes (log2)
system.mem_ctrls.readPktSize::5                     0                       # Read request sizes (log2)
system.mem_ctrls.readPktSize::6                  2105                       # Read request sizes (log2)
system.mem_ctrls.writePktSize::0                    0                       # Write request sizes (log2)
system.mem_ctrls.writePktSize::1                    0                       # Write request sizes (log2)
system.mem_ctrls.writePktSize::2                    0                       # Write request sizes (log2)
system.mem_ctrls.writePktSize::3                    0                       # Write request sizes (log2)
system.mem_ctrls.writePktSize::4                    0                       # Write request sizes (log2)
system.mem_ctrls.writePktSize::5                    0                       # Write request sizes (log2)
system.mem_ctrls.writePktSize::6                   92                       # Write request sizes (log2)
system.mem_ctrls.rdQLenPdf::0                     859                       # What read queue length does an incoming req see
system.mem_ctrls.rdQLenPdf::1                     589                       # What read queue length does an incoming req see
system.mem_ctrls.rdQLenPdf::2                     134                       # What read queue length does an incoming req see
system.mem_ctrls.rdQLenPdf::3                      73                       # What read queue length does an incoming req see
system.mem_ctrls.rdQLenPdf::4                      47                       # What read queue length does an incoming req see
system.mem_ctrls.rdQLenPdf::5                      38                       # What read queue length does an incoming req see
system.mem_ctrls.rdQLenPdf::6                      46                       # What read queue length does an incoming req see
system.mem_ctrls.rdQLenPdf::7                      49                       # What read queue length does an incoming req see
system.mem_ctrls.rdQLenPdf::8                      53                       # What read queue length does an incoming req see
system.mem_ctrls.rdQLenPdf::9                      39                       # What read queue length does an incoming req see
system.mem_ctrls.rdQLenPdf::10                     29                       # What read queue length does an incoming req see
system.mem_ctrls.rdQLenPdf::11                     27                       # What read queue length does an incoming req see
system.mem_ctrls.rdQLenPdf::12                     28                       # What read queue length does an incoming req see
system.mem_ctrls.rdQLenPdf::13                     19                       # What read queue length does an incoming req see
system.mem_ctrls.rdQLenPdf::14                     13                       # What read queue length does an incoming req see
system.mem_ctrls.rdQLenPdf::15                      7                       # What read queue length does an incoming req see
system.mem_ctrls.rdQLenPdf::16                      7                       # What read queue length does an incoming req see
system.mem_ctrls.rdQLenPdf::17                      3                       # What read queue length does an incoming req see
system.mem_ctrls.rdQLenPdf::18                      1                       # What read queue length does an incoming req see
system.mem_ctrls.rdQLenPdf::19                      1                       # What read queue length does an incoming req see
system.mem_ctrls.rdQLenPdf::20                      0                       # What read queue length does an incoming req see
system.mem_ctrls.rdQLenPdf::21                      0                       # What read queue length does an incoming req see
system.mem_ctrls.rdQLenPdf::22                      0                       # What read queue length does an incoming req see
system.mem_ctrls.rdQLenPdf::23                      0                       # What read queue length does an incoming req see
system.mem_ctrls.rdQLenPdf::24                      0                       # What read queue length does an incoming req see
system.mem_ctrls.rdQLenPdf::25                      0                       # What read queue length does an incoming req see
system.mem_ctrls.rdQLenPdf::26                      0                       # What read queue length does an incoming req see
system.mem_ctrls.rdQLenPdf::27                      0                       # What read queue length does an incoming req see
system.mem_ctrls.rdQLenPdf::28                      0                       # What read queue length does an incoming req see
system.mem_ctrls.rdQLenPdf::29                      0                       # What read queue length does an incoming req see
system.mem_ctrls.rdQLenPdf::30                      0                       # What read queue length does an incoming req see
system.mem_ctrls.rdQLenPdf::31                      0                       # What read queue length does an incoming req see
system.mem_ctrls.wrQLenPdf::0                       1                       # What write queue length does an incoming req see
system.mem_ctrls.wrQLenPdf::1                       1                       # What write queue length does an incoming req see
system.mem_ctrls.wrQLenPdf::2                       1                       # What write queue length does an incoming req see
system.mem_ctrls.wrQLenPdf::3                       1                       # What write queue length does an incoming req see
system.mem_ctrls.wrQLenPdf::4                       1                       # What write queue length does an incoming req see
system.mem_ctrls.wrQLenPdf::5                       1                       # What write queue length does an incoming req see
system.mem_ctrls.wrQLenPdf::6                       1                       # What write queue length does an incoming req see
system.mem_ctrls.wrQLenPdf::7                       1                       # What write queue length does an incoming req see
system.mem_ctrls.wrQLenPdf::8                       1                       # What write queue length does an incoming req see
system.mem_ctrls.wrQLenPdf::9                       1                       # What write queue length does an incoming req see
system.mem_ctrls.wrQLenPdf::10                      1                       # What write queue length does an incoming req see
system.mem_ctrls.wrQLenPdf::11                      1                       # What write queue length does an incoming req see
system.mem_ctrls.wrQLenPdf::12                      1                       # What write queue length does an incoming req see
system.mem_ctrls.wrQLenPdf::13                      1                       # What write queue length does an incoming req see
system.mem_ctrls.wrQLenPdf::14                      1                       # What write queue length does an incoming req see
system.mem_ctrls.wrQLenPdf::15                      2                       # What write queue length does an incoming req see
system.mem_ctrls.wrQLenPdf::16                      2                       # What write queue length does an incoming req see
system.mem_ctrls.wrQLenPdf::17                      4                       # What write queue length does an incoming req see
system.mem_ctrls.wrQLenPdf::18                      5                       # What write queue length does an incoming req see
system.mem_ctrls.wrQLenPdf::19                      6                       # What write queue length does an incoming req see
system.mem_ctrls.wrQLenPdf::20                      5                       # What write queue length does an incoming req see
system.mem_ctrls.wrQLenPdf::21                      5                       # What write queue length does an incoming req see
system.mem_ctrls.wrQLenPdf::22                      6                       # What write queue length does an incoming req see
system.mem_ctrls.wrQLenPdf::23                      4                       # What write queue length does an incoming req see
system.mem_ctrls.wrQLenPdf::24                      4                       # What write queue length does an incoming req see
system.mem_ctrls.wrQLenPdf::25                      4                       # What write queue length does an incoming req see
system.mem_ctrls.wrQLenPdf::26                      4                       # What write queue length does an incoming req see
system.mem_ctrls.wrQLenPdf::27                      4                       # What write queue length does an incoming req see
system.mem_ctrls.wrQLenPdf::28                      4                       # What write queue length does an incoming req see
system.mem_ctrls.wrQLenPdf::29                      4                       # What write queue length does an incoming req see
system.mem_ctrls.wrQLenPdf::30                      4                       # What write queue length does an incoming req see
system.mem_ctrls.wrQLenPdf::31                      4                       # What write queue length does an incoming req see
system.mem_ctrls.wrQLenPdf::32                      4                       # What write queue length does an incoming req see
system.mem_ctrls.wrQLenPdf::33                      0                       # What write queue length does an incoming req see
system.mem_ctrls.wrQLenPdf::34                      0                       # What write queue length does an incoming req see
system.mem_ctrls.wrQLenPdf::35                      0                       # What write queue length does an incoming req see
system.mem_ctrls.wrQLenPdf::36                      0                       # What write queue length does an incoming req see
system.mem_ctrls.wrQLenPdf::37                      0                       # What write queue length does an incoming req see
system.mem_ctrls.wrQLenPdf::38                      0                       # What write queue length does an incoming req see
system.mem_ctrls.wrQLenPdf::39                      0                       # What write queue length does an incoming req see
system.mem_ctrls.wrQLenPdf::40                      0                       # What write queue length does an incoming req see
system.mem_ctrls.wrQLenPdf::41                      0                       # What write queue length does an incoming req see
system.mem_ctrls.wrQLenPdf::42                      0                       # What write queue length does an incoming req see
system.mem_ctrls.wrQLenPdf::43                      0                       # What write queue length does an incoming req see
system.mem_ctrls.wrQLenPdf::44                      0                       # What write queue length does an incoming req see
system.mem_ctrls.wrQLenPdf::45                      0                       # What write queue length does an incoming req see
system.mem_ctrls.wrQLenPdf::46                      0                       # What write queue length does an incoming req see
system.mem_ctrls.wrQLenPdf::47                      0                       # What write queue length does an incoming req see
system.mem_ctrls.wrQLenPdf::48                      0                       # What write queue length does an incoming req see
system.mem_ctrls.wrQLenPdf::49                      0                       # What write queue length does an incoming req see
system.mem_ctrls.wrQLenPdf::50                      0                       # What write queue length does an incoming req see
system.mem_ctrls.wrQLenPdf::51                      0                       # What write queue length does an incoming req see
system.mem_ctrls.wrQLenPdf::52                      0                       # What write queue length does an incoming req see
system.mem_ctrls.wrQLenPdf::53                      0                       # What write queue length does an incoming req see
system.mem_ctrls.wrQLenPdf::54                      0                       # What write queue length does an incoming req see
system.mem_ctrls.wrQLenPdf::55                      0                       # What write queue length does an incoming req see
system.mem_ctrls.wrQLenPdf::56                      0                       # What write queue length does an incoming req see
system.mem_ctrls.wrQLenPdf::57                      0                       # What write queue length does an incoming req see
system.mem_ctrls.wrQLenPdf::58                      0                       # What write queue length does an incoming req see
system.mem_ctrls.wrQLenPdf::59                      0                       # What write queue length does an incoming req see
system.mem_ctrls.wrQLenPdf::60                      0                       # What write queue length does an incoming req see
system.mem_ctrls.wrQLenPdf::61                      0                       # What write queue length does an incoming req see
system.mem_ctrls.wrQLenPdf::62                      0                       # What write queue length does an incoming req see
system.mem_ctrls.wrQLenPdf::63                      0                       # What write queue length does an incoming req see
system.mem_ctrls.bytesPerActivate::samples          357                       # Bytes accessed per row activation
system.mem_ctrls.bytesPerActivate::mean    374.498599                       # Bytes accessed per row activation
system.mem_ctrls.bytesPerActivate::gmean   210.345076                       # Bytes accessed per row activation
system.mem_ctrls.bytesPerActivate::stdev   373.383299                       # Bytes accessed per row activation
system.mem_ctrls.bytesPerActivate::0-127          132     36.97%     36.97% # Bytes accessed per row activation
system.mem_ctrls.bytesPerActivate::128-255           68     19.05%     56.02% # Bytes accessed per row activation
system.mem_ctrls.bytesPerActivate::256-383           22      6.16%     62.18% # Bytes accessed per row activation
system.mem_ctrls.bytesPerActivate::384-511           23      6.44%     68.63% # Bytes accessed per row activation
system.mem_ctrls.bytesPerActivate::512-639           16      4.48%     73.11% # Bytes accessed per row activation
system.mem_ctrls.bytesPerActivate::640-767           14      3.92%     77.03% # Bytes accessed per row activation
system.mem_ctrls.bytesPerActivate::768-895            9      2.52%     79.55% # Bytes accessed per row activation
system.mem_ctrls.bytesPerActivate::896-1023            7      1.96%     81.51% # Bytes accessed per row activation
system.mem_ctrls.bytesPerActivate::1024-1151           66     18.49%    100.00% # Bytes accessed per row activation
system.mem_ctrls.bytesPerActivate::total          357                       # Bytes accessed per row activation
system.mem_ctrls.rdPerTurnAround::samples            4                       # Reads before turning the bus around for writes
system.mem_ctrls.rdPerTurnAround::mean     377.250000                       # Reads before turning the bus around for writes
system.mem_ctrls.rdPerTurnAround::gmean    155.514852                       # Reads before turning the bus around for writes
system.mem_ctrls.rdPerTurnAround::stdev    564.619267                       # Reads before turning the bus around for writes
system.mem_ctrls.rdPerTurnAround::0-63              1     25.00%     25.00% # Reads before turning the bus around for writes
system.mem_ctrls.rdPerTurnAround::64-127            1     25.00%     50.00% # Reads before turning the bus around for writes
system.mem_ctrls.rdPerTurnAround::128-191            1     25.00%     75.00% # Reads before turning the bus around for writes
system.mem_ctrls.rdPerTurnAround::1216-1279            1     25.00%    100.00% # Reads before turning the bus around for writes
system.mem_ctrls.rdPerTurnAround::total             4                       # Reads before turning the bus around for writes
system.mem_ctrls.wrPerTurnAround::samples            4                       # Writes before turning the bus around for reads
system.mem_ctrls.wrPerTurnAround::mean      16.750000                       # Writes before turning the bus around for reads
system.mem_ctrls.wrPerTurnAround::gmean     16.702381                       # Writes before turning the bus around for reads
system.mem_ctrls.wrPerTurnAround::stdev      1.500000                       # Writes before turning the bus around for reads
system.mem_ctrls.wrPerTurnAround::16                3     75.00%     75.00% # Writes before turning the bus around for reads
system.mem_ctrls.wrPerTurnAround::19                1     25.00%    100.00% # Writes before turning the bus around for reads
system.mem_ctrls.wrPerTurnAround::total             4                       # Writes before turning the bus around for reads
system.mem_ctrls.totQLat                     34085250                       # Total ticks spent queuing
system.mem_ctrls.totMemAccLat                72747750                       # Total ticks spent from burst creation until serviced by the DRAM
system.mem_ctrls.totBusLat                   10310000                       # Total ticks spent in databus transfers
system.mem_ctrls.avgQLat                     16530.19                       # Average queueing delay per DRAM burst
system.mem_ctrls.avgBusLat                    5000.00                       # Average bus latency per DRAM burst
system.mem_ctrls.avgMemAccLat                35280.19                       # Average memory access latency per DRAM burst
system.mem_ctrls.avgRdBW                      1349.38                       # Average DRAM read bandwidth in MiByte/s
system.mem_ctrls.avgWrBW                        43.85                       # Average achieved write bandwidth in MiByte/s
system.mem_ctrls.avgRdBWSys                   1377.52                       # Average system read bandwidth in MiByte/s
system.mem_ctrls.avgWrBWSys                     60.21                       # Average system write bandwidth in MiByte/s
system.mem_ctrls.peakBW                      12800.00                       # Theoretical peak bandwidth in MiByte/s
system.mem_ctrls.busUtil                        10.88                       # Data bus utilization in percentage
system.mem_ctrls.busUtilRead                    10.54                       # Data bus utilization in percentage for reads
system.mem_ctrls.busUtilWrite                    0.34                       # Data bus utilization in percentage for writes
system.mem_ctrls.avgRdQLen                       1.80                       # Average read queue length when enqueuing
system.mem_ctrls.avgWrQLen                      13.90                       # Average write queue length when enqueuing
system.mem_ctrls.readRowHits                     1704                       # Number of row buffer hits during reads
system.mem_ctrls.writeRowHits                      55                       # Number of row buffer hits during writes
system.mem_ctrls.readRowHitRate                 82.64                       # Row buffer hit rate for reads
system.mem_ctrls.writeRowHitRate                61.11                       # Row buffer hit rate for writes
system.mem_ctrls.avgGap                      44510.92                       # Average gap between requests
system.mem_ctrls.pageHitRate                    81.74                       # Row buffer hit rate, read and write combined
system.mem_ctrls_0.actEnergy                  2237760                       # Energy for activate commands per rank (pJ)
system.mem_ctrls_0.preEnergy                  1221000                       # Energy for precharge commands per rank (pJ)
system.mem_ctrls_0.readEnergy                13455000                       # Energy for read commands per rank (pJ)
system.mem_ctrls_0.writeEnergy                 252720                       # Energy for write commands per rank (pJ)
system.mem_ctrls_0.refreshEnergy              6102720                       # Energy for refresh commands per rank (pJ)
system.mem_ctrls_0.actBackEnergy             56851515                       # Energy for active background per rank (pJ)
system.mem_ctrls_0.preBackEnergy              6347250                       # Energy for precharge background per rank (pJ)
system.mem_ctrls_0.totalEnergy               86467965                       # Total energy per rank (pJ)
system.mem_ctrls_0.averagePower            922.866375                       # Core power per rank (mW)
system.mem_ctrls_0.memoryStateTime::IDLE     10027250                       # Time in different power states
system.mem_ctrls_0.memoryStateTime::REF       3120000                       # Time in different power states
system.mem_ctrls_0.memoryStateTime::PRE_PDN            0                       # Time in different power states
system.mem_ctrls_0.memoryStateTime::ACT      80561500                       # Time in different power states
system.mem_ctrls_0.memoryStateTime::ACT_PDN            0                       # Time in different power states
system.mem_ctrls_1.actEnergy                   279720                       # Energy for activate commands per rank (pJ)
system.mem_ctrls_1.preEnergy                   152625                       # Energy for precharge commands per rank (pJ)
system.mem_ctrls_1.readEnergy                 1458600                       # Energy for read commands per rank (pJ)
system.mem_ctrls_1.writeEnergy                 181440                       # Energy for write commands per rank (pJ)
system.mem_ctrls_1.refreshEnergy              6102720                       # Energy for refresh commands per rank (pJ)
system.mem_ctrls_1.actBackEnergy             32846535                       # Energy for active background per rank (pJ)
system.mem_ctrls_1.preBackEnergy             27396000                       # Energy for precharge background per rank (pJ)
system.mem_ctrls_1.totalEnergy               68417640                       # Total energy per rank (pJ)
system.mem_ctrls_1.averagePower            730.323731                       # Core power per rank (mW)
system.mem_ctrls_1.memoryStateTime::IDLE     46251000                       # Time in different power states
system.mem_ctrls_1.memoryStateTime::REF       3120000                       # Time in different power states
system.mem_ctrls_1.memoryStateTime::PRE_PDN            0                       # Time in different power states
system.mem_ctrls_1.memoryStateTime::ACT      45179000                       # Time in different power states
system.mem_ctrls_1.memoryStateTime::ACT_PDN            0                       # Time in different power states
system.cpu0.branchPred.lookups                  24672                       # Number of BP lookups
system.cpu0.branchPred.condPredicted            22173                       # Number of conditional branches predicted
system.cpu0.branchPred.condIncorrect             1236                       # Number of conditional branches incorrect
system.cpu0.branchPred.BTBLookups               21682                       # Number of BTB lookups
system.cpu0.branchPred.BTBHits                  18089                       # Number of BTB hits
system.cpu0.branchPred.BTBCorrect                   0                       # Number of correct BTB predictions (this stat may not work properly.
system.cpu0.branchPred.BTBHitPct            83.428650                       # BTB Hit Percentage
system.cpu0.branchPred.usedRAS                    940                       # Number of times the RAS was used to get a target.
system.cpu0.branchPred.RASInCorrect                14                       # Number of incorrect RAS predictions.
system.cpu_voltage_domain.voltage                   1                       # Voltage in Volts
system.cpu_clk_domain.clock                       500                       # Clock period in ticks
system.cpu0.dstage2_mmu.stage2_tlb.walker.walks            0                       # Table walker walks requested
system.cpu0.dstage2_mmu.stage2_tlb.walker.walkRequestOrigin_Requested::Data            0                       # Table walker requests started/completed, data/inst
system.cpu0.dstage2_mmu.stage2_tlb.walker.walkRequestOrigin_Requested::Inst            0                       # Table walker requests started/completed, data/inst
system.cpu0.dstage2_mmu.stage2_tlb.walker.walkRequestOrigin_Requested::total            0                       # Table walker requests started/completed, data/inst
system.cpu0.dstage2_mmu.stage2_tlb.walker.walkRequestOrigin_Completed::Data            0                       # Table walker requests started/completed, data/inst
system.cpu0.dstage2_mmu.stage2_tlb.walker.walkRequestOrigin_Completed::Inst            0                       # Table walker requests started/completed, data/inst
system.cpu0.dstage2_mmu.stage2_tlb.walker.walkRequestOrigin_Completed::total            0                       # Table walker requests started/completed, data/inst
system.cpu0.dstage2_mmu.stage2_tlb.walker.walkRequestOrigin::total            0                       # Table walker requests started/completed, data/inst
system.cpu0.dstage2_mmu.stage2_tlb.inst_hits            0                       # ITB inst hits
system.cpu0.dstage2_mmu.stage2_tlb.inst_misses            0                       # ITB inst misses
system.cpu0.dstage2_mmu.stage2_tlb.read_hits            0                       # DTB read hits
system.cpu0.dstage2_mmu.stage2_tlb.read_misses            0                       # DTB read misses
system.cpu0.dstage2_mmu.stage2_tlb.write_hits            0                       # DTB write hits
system.cpu0.dstage2_mmu.stage2_tlb.write_misses            0                       # DTB write misses
system.cpu0.dstage2_mmu.stage2_tlb.flush_tlb            0                       # Number of times complete TLB was flushed
system.cpu0.dstage2_mmu.stage2_tlb.flush_tlb_mva            0                       # Number of times TLB was flushed by MVA
system.cpu0.dstage2_mmu.stage2_tlb.flush_tlb_mva_asid            0                       # Number of times TLB was flushed by MVA & ASID
system.cpu0.dstage2_mmu.stage2_tlb.flush_tlb_asid            0                       # Number of times TLB was flushed by ASID
system.cpu0.dstage2_mmu.stage2_tlb.flush_entries            0                       # Number of entries that have been flushed from TLB
system.cpu0.dstage2_mmu.stage2_tlb.align_faults            0                       # Number of TLB faults due to alignment restrictions
system.cpu0.dstage2_mmu.stage2_tlb.prefetch_faults            0                       # Number of TLB faults due to prefetch
system.cpu0.dstage2_mmu.stage2_tlb.domain_faults            0                       # Number of TLB faults due to domain restrictions
system.cpu0.dstage2_mmu.stage2_tlb.perms_faults            0                       # Number of TLB faults due to permissions restrictions
system.cpu0.dstage2_mmu.stage2_tlb.read_accesses            0                       # DTB read accesses
system.cpu0.dstage2_mmu.stage2_tlb.write_accesses            0                       # DTB write accesses
system.cpu0.dstage2_mmu.stage2_tlb.inst_accesses            0                       # ITB inst accesses
system.cpu0.dstage2_mmu.stage2_tlb.hits             0                       # DTB hits
system.cpu0.dstage2_mmu.stage2_tlb.misses            0                       # DTB misses
system.cpu0.dstage2_mmu.stage2_tlb.accesses            0                       # DTB accesses
system.cpu0.dtb.walker.walks                        0                       # Table walker walks requested
system.cpu0.dtb.walker.walkRequestOrigin_Requested::Data            0                       # Table walker requests started/completed, data/inst
system.cpu0.dtb.walker.walkRequestOrigin_Requested::Inst            0                       # Table walker requests started/completed, data/inst
system.cpu0.dtb.walker.walkRequestOrigin_Requested::total            0                       # Table walker requests started/completed, data/inst
system.cpu0.dtb.walker.walkRequestOrigin_Completed::Data            0                       # Table walker requests started/completed, data/inst
system.cpu0.dtb.walker.walkRequestOrigin_Completed::Inst            0                       # Table walker requests started/completed, data/inst
system.cpu0.dtb.walker.walkRequestOrigin_Completed::total            0                       # Table walker requests started/completed, data/inst
system.cpu0.dtb.walker.walkRequestOrigin::total            0                       # Table walker requests started/completed, data/inst
system.cpu0.dtb.inst_hits                           0                       # ITB inst hits
system.cpu0.dtb.inst_misses                         0                       # ITB inst misses
system.cpu0.dtb.read_hits                           0                       # DTB read hits
system.cpu0.dtb.read_misses                         0                       # DTB read misses
system.cpu0.dtb.write_hits                          0                       # DTB write hits
system.cpu0.dtb.write_misses                        0                       # DTB write misses
system.cpu0.dtb.flush_tlb                           0                       # Number of times complete TLB was flushed
system.cpu0.dtb.flush_tlb_mva                       0                       # Number of times TLB was flushed by MVA
system.cpu0.dtb.flush_tlb_mva_asid                  0                       # Number of times TLB was flushed by MVA & ASID
system.cpu0.dtb.flush_tlb_asid                      0                       # Number of times TLB was flushed by ASID
system.cpu0.dtb.flush_entries                       0                       # Number of entries that have been flushed from TLB
system.cpu0.dtb.align_faults                        0                       # Number of TLB faults due to alignment restrictions
system.cpu0.dtb.prefetch_faults                     0                       # Number of TLB faults due to prefetch
system.cpu0.dtb.domain_faults                       0                       # Number of TLB faults due to domain restrictions
system.cpu0.dtb.perms_faults                        0                       # Number of TLB faults due to permissions restrictions
system.cpu0.dtb.read_accesses                       0                       # DTB read accesses
system.cpu0.dtb.write_accesses                      0                       # DTB write accesses
system.cpu0.dtb.inst_accesses                       0                       # ITB inst accesses
system.cpu0.dtb.hits                                0                       # DTB hits
system.cpu0.dtb.misses                              0                       # DTB misses
system.cpu0.dtb.accesses                            0                       # DTB accesses
system.cpu0.istage2_mmu.stage2_tlb.walker.walks            0                       # Table walker walks requested
system.cpu0.istage2_mmu.stage2_tlb.walker.walkRequestOrigin_Requested::Data            0                       # Table walker requests started/completed, data/inst
system.cpu0.istage2_mmu.stage2_tlb.walker.walkRequestOrigin_Requested::Inst            0                       # Table walker requests started/completed, data/inst
system.cpu0.istage2_mmu.stage2_tlb.walker.walkRequestOrigin_Requested::total            0                       # Table walker requests started/completed, data/inst
system.cpu0.istage2_mmu.stage2_tlb.walker.walkRequestOrigin_Completed::Data            0                       # Table walker requests started/completed, data/inst
system.cpu0.istage2_mmu.stage2_tlb.walker.walkRequestOrigin_Completed::Inst            0                       # Table walker requests started/completed, data/inst
system.cpu0.istage2_mmu.stage2_tlb.walker.walkRequestOrigin_Completed::total            0                       # Table walker requests started/completed, data/inst
system.cpu0.istage2_mmu.stage2_tlb.walker.walkRequestOrigin::total            0                       # Table walker requests started/completed, data/inst
system.cpu0.istage2_mmu.stage2_tlb.inst_hits            0                       # ITB inst hits
system.cpu0.istage2_mmu.stage2_tlb.inst_misses            0                       # ITB inst misses
system.cpu0.istage2_mmu.stage2_tlb.read_hits            0                       # DTB read hits
system.cpu0.istage2_mmu.stage2_tlb.read_misses            0                       # DTB read misses
system.cpu0.istage2_mmu.stage2_tlb.write_hits            0                       # DTB write hits
system.cpu0.istage2_mmu.stage2_tlb.write_misses            0                       # DTB write misses
system.cpu0.istage2_mmu.stage2_tlb.flush_tlb            0                       # Number of times complete TLB was flushed
system.cpu0.istage2_mmu.stage2_tlb.flush_tlb_mva            0                       # Number of times TLB was flushed by MVA
system.cpu0.istage2_mmu.stage2_tlb.flush_tlb_mva_asid            0                       # Number of times TLB was flushed by MVA & ASID
system.cpu0.istage2_mmu.stage2_tlb.flush_tlb_asid            0                       # Number of times TLB was flushed by ASID
system.cpu0.istage2_mmu.stage2_tlb.flush_entries            0                       # Number of entries that have been flushed from TLB
system.cpu0.istage2_mmu.stage2_tlb.align_faults            0                       # Number of TLB faults due to alignment restrictions
system.cpu0.istage2_mmu.stage2_tlb.prefetch_faults            0                       # Number of TLB faults due to prefetch
system.cpu0.istage2_mmu.stage2_tlb.domain_faults            0                       # Number of TLB faults due to domain restrictions
system.cpu0.istage2_mmu.stage2_tlb.perms_faults            0                       # Number of TLB faults due to permissions restrictions
system.cpu0.istage2_mmu.stage2_tlb.read_accesses            0                       # DTB read accesses
system.cpu0.istage2_mmu.stage2_tlb.write_accesses            0                       # DTB write accesses
system.cpu0.istage2_mmu.stage2_tlb.inst_accesses            0                       # ITB inst accesses
system.cpu0.istage2_mmu.stage2_tlb.hits             0                       # DTB hits
system.cpu0.istage2_mmu.stage2_tlb.misses            0                       # DTB misses
system.cpu0.istage2_mmu.stage2_tlb.accesses            0                       # DTB accesses
system.cpu0.itb.walker.walks                        0                       # Table walker walks requested
system.cpu0.itb.walker.walkRequestOrigin_Requested::Data            0                       # Table walker requests started/completed, data/inst
system.cpu0.itb.walker.walkRequestOrigin_Requested::Inst            0                       # Table walker requests started/completed, data/inst
system.cpu0.itb.walker.walkRequestOrigin_Requested::total            0                       # Table walker requests started/completed, data/inst
system.cpu0.itb.walker.walkRequestOrigin_Completed::Data            0                       # Table walker requests started/completed, data/inst
system.cpu0.itb.walker.walkRequestOrigin_Completed::Inst            0                       # Table walker requests started/completed, data/inst
system.cpu0.itb.walker.walkRequestOrigin_Completed::total            0                       # Table walker requests started/completed, data/inst
system.cpu0.itb.walker.walkRequestOrigin::total            0                       # Table walker requests started/completed, data/inst
system.cpu0.itb.inst_hits                           0                       # ITB inst hits
system.cpu0.itb.inst_misses                         0                       # ITB inst misses
system.cpu0.itb.read_hits                           0                       # DTB read hits
system.cpu0.itb.read_misses                         0                       # DTB read misses
system.cpu0.itb.write_hits                          0                       # DTB write hits
system.cpu0.itb.write_misses                        0                       # DTB write misses
system.cpu0.itb.flush_tlb                           0                       # Number of times complete TLB was flushed
system.cpu0.itb.flush_tlb_mva                       0                       # Number of times TLB was flushed by MVA
system.cpu0.itb.flush_tlb_mva_asid                  0                       # Number of times TLB was flushed by MVA & ASID
system.cpu0.itb.flush_tlb_asid                      0                       # Number of times TLB was flushed by ASID
system.cpu0.itb.flush_entries                       0                       # Number of entries that have been flushed from TLB
system.cpu0.itb.align_faults                        0                       # Number of TLB faults due to alignment restrictions
system.cpu0.itb.prefetch_faults                     0                       # Number of TLB faults due to prefetch
system.cpu0.itb.domain_faults                       0                       # Number of TLB faults due to domain restrictions
system.cpu0.itb.perms_faults                        0                       # Number of TLB faults due to permissions restrictions
system.cpu0.itb.read_accesses                       0                       # DTB read accesses
system.cpu0.itb.write_accesses                      0                       # DTB write accesses
system.cpu0.itb.inst_accesses                       0                       # ITB inst accesses
system.cpu0.itb.hits                                0                       # DTB hits
system.cpu0.itb.misses                              0                       # DTB misses
system.cpu0.itb.accesses                            0                       # DTB accesses
system.cpu0.workload.num_syscalls                 136                       # Number of system calls
system.cpu0.numCycles                          195599                       # number of cpu cycles simulated
system.cpu0.numWorkItemsStarted                     0                       # number of work items this cpu started
system.cpu0.numWorkItemsCompleted                   0                       # number of work items this cpu completed
system.cpu0.fetch.icacheStallCycles             42016                       # Number of cycles fetch is stalled on an Icache miss
system.cpu0.fetch.Insts                        241136                       # Number of instructions fetch has processed
system.cpu0.fetch.Branches                      24672                       # Number of branches that fetch encountered
system.cpu0.fetch.predictedBranches             19029                       # Number of branches that fetch has predicted taken
system.cpu0.fetch.Cycles                       118848                       # Number of cycles fetch has run and was not squashing or blocked
system.cpu0.fetch.SquashCycles                   2595                       # Number of cycles fetch has spent squashing
system.cpu0.fetch.PendingTrapStallCycles            4                       # Number of stall cycles due to pending traps
system.cpu0.fetch.CacheLines                    28533                       # Number of cache lines fetched
system.cpu0.fetch.IcacheSquashes                  642                       # Number of outstanding Icache misses that were squashed
system.cpu0.fetch.rateDist::samples            162165                       # Number of instructions fetched each cycle (Total)
system.cpu0.fetch.rateDist::mean             1.597533                       # Number of instructions fetched each cycle (Total)
system.cpu0.fetch.rateDist::stdev            2.832391                       # Number of instructions fetched each cycle (Total)
system.cpu0.fetch.rateDist::underflows              0      0.00%      0.00% # Number of instructions fetched each cycle (Total)
system.cpu0.fetch.rateDist::0                  115665     71.33%     71.33% # Number of instructions fetched each cycle (Total)
system.cpu0.fetch.rateDist::1                    3834      2.36%     73.69% # Number of instructions fetched each cycle (Total)
system.cpu0.fetch.rateDist::2                    3921      2.42%     76.11% # Number of instructions fetched each cycle (Total)
system.cpu0.fetch.rateDist::3                    3205      1.98%     78.08% # Number of instructions fetched each cycle (Total)
system.cpu0.fetch.rateDist::4                    5535      3.41%     81.50% # Number of instructions fetched each cycle (Total)
system.cpu0.fetch.rateDist::5                    2038      1.26%     82.75% # Number of instructions fetched each cycle (Total)
system.cpu0.fetch.rateDist::6                    5724      3.53%     86.28% # Number of instructions fetched each cycle (Total)
system.cpu0.fetch.rateDist::7                    6845      4.22%     90.50% # Number of instructions fetched each cycle (Total)
system.cpu0.fetch.rateDist::8                   15398      9.50%    100.00% # Number of instructions fetched each cycle (Total)
system.cpu0.fetch.rateDist::overflows               0      0.00%    100.00% # Number of instructions fetched each cycle (Total)
system.cpu0.fetch.rateDist::min_value               0                       # Number of instructions fetched each cycle (Total)
system.cpu0.fetch.rateDist::max_value               8                       # Number of instructions fetched each cycle (Total)
system.cpu0.fetch.rateDist::total              162165                       # Number of instructions fetched each cycle (Total)
system.cpu0.fetch.branchRate                 0.126136                       # Number of branch fetches per cycle
system.cpu0.fetch.rate                       1.232808                       # Number of inst fetches per cycle
system.cpu0.decode.IdleCycles                   24674                       # Number of cycles decode is idle
system.cpu0.decode.BlockedCycles               103366                       # Number of cycles decode is blocked
system.cpu0.decode.RunCycles                    12203                       # Number of cycles decode is running
system.cpu0.decode.UnblockCycles                20933                       # Number of cycles decode is unblocking
system.cpu0.decode.SquashCycles                   989                       # Number of cycles decode is squashing
system.cpu0.decode.BranchResolved                1082                       # Number of times decode resolved a branch
system.cpu0.decode.BranchMispred                  320                       # Number of times decode detected a branch misprediction
system.cpu0.decode.DecodedInsts                240791                       # Number of instructions handled by decode
system.cpu0.decode.SquashedInsts                 1194                       # Number of squashed instructions handled by decode
system.cpu0.rename.SquashCycles                   989                       # Number of cycles rename is squashing
system.cpu0.rename.IdleCycles                   31887                       # Number of cycles rename is idle
system.cpu0.rename.BlockCycles                   8858                       # Number of cycles rename is blocking
system.cpu0.rename.serializeStallCycles         10880                       # count of cycles rename stalled for serializing inst
system.cpu0.rename.RunCycles                    25653                       # Number of cycles rename is running
system.cpu0.rename.UnblockCycles                83898                       # Number of cycles rename is unblocking
system.cpu0.rename.RenamedInsts                237805                       # Number of instructions processed by rename
system.cpu0.rename.ROBFullEvents                   87                       # Number of times rename has blocked due to ROB full
system.cpu0.rename.IQFullEvents                 44932                       # Number of times rename has blocked due to IQ full
system.cpu0.rename.LQFullEvents                   468                       # Number of times rename has blocked due to LQ full
system.cpu0.rename.SQFullEvents                 35910                       # Number of times rename has blocked due to SQ full
system.cpu0.rename.RenamedOperands             289642                       # Number of destination operands rename has renamed
system.cpu0.rename.RenameLookups              1173042                       # Number of register rename lookups that rename has made
system.cpu0.rename.int_rename_lookups          374285                       # Number of integer rename lookups
system.cpu0.rename.fp_rename_lookups               22                       # Number of floating rename lookups
system.cpu0.rename.CommittedMaps               246538                       # Number of HB maps that are committed
system.cpu0.rename.UndoneMaps                   43104                       # Number of HB maps that are undone due to squashing
system.cpu0.rename.serializingInsts               153                       # count of serializing insts renamed
system.cpu0.rename.tempSerializingInsts           152                       # count of temporary serializing insts renamed
system.cpu0.rename.skidInsts                   102471                       # count of insts added to the skid buffer
system.cpu0.memDep0.insertedLoads               43332                       # Number of loads inserted to the mem dependence unit.
system.cpu0.memDep0.insertedStores              23389                       # Number of stores inserted to the mem dependence unit.
system.cpu0.memDep0.conflictingLoads              941                       # Number of conflicting loads.
system.cpu0.memDep0.conflictingStores             462                       # Number of conflicting stores.
system.cpu0.iq.iqInstsAdded                    233915                       # Number of instructions added to the IQ (excludes non-spec)
system.cpu0.iq.iqNonSpecInstsAdded                306                       # Number of non-speculative instructions added to the IQ
system.cpu0.iq.iqInstsIssued                   206595                       # Number of instructions issued
system.cpu0.iq.iqSquashedInstsIssued             2689                       # Number of squashed instructions issued
system.cpu0.iq.iqSquashedInstsExamined          33125                       # Number of squashed instructions iterated over during squash; mainly for profiling
system.cpu0.iq.iqSquashedOperandsExamined       137290                       # Number of squashed operands that are examined and possibly removed from graph
system.cpu0.iq.iqSquashedNonSpecRemoved            98                       # Number of squashed non-spec instructions that were removed
system.cpu0.iq.issued_per_cycle::samples       162165                       # Number of insts issued each cycle
system.cpu0.iq.issued_per_cycle::mean        1.273980                       # Number of insts issued each cycle
system.cpu0.iq.issued_per_cycle::stdev       0.943983                       # Number of insts issued each cycle
system.cpu0.iq.issued_per_cycle::underflows            0      0.00%      0.00% # Number of insts issued each cycle
system.cpu0.iq.issued_per_cycle::0              56124     34.61%     34.61% # Number of insts issued each cycle
system.cpu0.iq.issued_per_cycle::1               5487      3.38%     37.99% # Number of insts issued each cycle
system.cpu0.iq.issued_per_cycle::2             100554     62.01%    100.00% # Number of insts issued each cycle
system.cpu0.iq.issued_per_cycle::overflows            0      0.00%    100.00% # Number of insts issued each cycle
system.cpu0.iq.issued_per_cycle::min_value            0                       # Number of insts issued each cycle
system.cpu0.iq.issued_per_cycle::max_value            2                       # Number of insts issued each cycle
system.cpu0.iq.issued_per_cycle::total         162165                       # Number of insts issued each cycle
system.cpu0.iq.fu_full::No_OpClass                  0                       # attempts to use FU when none available
system.cpu0.iq.fu_full::IntAlu                      0                       # attempts to use FU when none available
system.cpu0.iq.fu_full::IntMult                     0                       # attempts to use FU when none available
system.cpu0.iq.fu_full::IntDiv                      0                       # attempts to use FU when none available
system.cpu0.iq.fu_full::FloatAdd                    0                       # attempts to use FU when none available
system.cpu0.iq.fu_full::FloatCmp                    0                       # attempts to use FU when none available
system.cpu0.iq.fu_full::FloatCvt                    0                       # attempts to use FU when none available
system.cpu0.iq.fu_full::FloatMult                   0                       # attempts to use FU when none available
system.cpu0.iq.fu_full::FloatDiv                    0                       # attempts to use FU when none available
system.cpu0.iq.fu_full::FloatSqrt                   0                       # attempts to use FU when none available
system.cpu0.iq.fu_full::SimdAdd                     0                       # attempts to use FU when none available
system.cpu0.iq.fu_full::SimdAddAcc                  0                       # attempts to use FU when none available
system.cpu0.iq.fu_full::SimdAlu                     0                       # attempts to use FU when none available
system.cpu0.iq.fu_full::SimdCmp                     0                       # attempts to use FU when none available
system.cpu0.iq.fu_full::SimdCvt                     0                       # attempts to use FU when none available
system.cpu0.iq.fu_full::SimdMisc                    0                       # attempts to use FU when none available
system.cpu0.iq.fu_full::SimdMult                    0                       # attempts to use FU when none available
system.cpu0.iq.fu_full::SimdMultAcc                 0                       # attempts to use FU when none available
system.cpu0.iq.fu_full::SimdShift                   0                       # attempts to use FU when none available
system.cpu0.iq.fu_full::SimdShiftAcc                0                       # attempts to use FU when none available
system.cpu0.iq.fu_full::SimdSqrt                    0                       # attempts to use FU when none available
system.cpu0.iq.fu_full::SimdFloatAdd                0                       # attempts to use FU when none available
system.cpu0.iq.fu_full::SimdFloatAlu                0                       # attempts to use FU when none available
system.cpu0.iq.fu_full::SimdFloatCmp                0                       # attempts to use FU when none available
system.cpu0.iq.fu_full::SimdFloatCvt                0                       # attempts to use FU when none available
system.cpu0.iq.fu_full::SimdFloatDiv                0                       # attempts to use FU when none available
system.cpu0.iq.fu_full::SimdFloatMisc               0                       # attempts to use FU when none available
system.cpu0.iq.fu_full::SimdFloatMult               0                       # attempts to use FU when none available
system.cpu0.iq.fu_full::SimdFloatMultAcc            0                       # attempts to use FU when none available
system.cpu0.iq.fu_full::SimdFloatSqrt               0                       # attempts to use FU when none available
system.cpu0.iq.fu_full::MemRead                     0                       # attempts to use FU when none available
system.cpu0.iq.fu_full::MemWrite                    0                       # attempts to use FU when none available
system.cpu0.iq.fu_full::IprAccess                   0                       # attempts to use FU when none available
system.cpu0.iq.fu_full::InstPrefetch                0                       # attempts to use FU when none available
system.cpu0.iq.FU_type_0::No_OpClass                0      0.00%      0.00% # Type of FU issued
system.cpu0.iq.FU_type_0::IntAlu               119700     57.94%     57.94% # Type of FU issued
system.cpu0.iq.FU_type_0::IntMult               27315     13.22%     71.16% # Type of FU issued
system.cpu0.iq.FU_type_0::IntDiv                    0      0.00%     71.16% # Type of FU issued
system.cpu0.iq.FU_type_0::FloatAdd                  0      0.00%     71.16% # Type of FU issued
system.cpu0.iq.FU_type_0::FloatCmp                  0      0.00%     71.16% # Type of FU issued
system.cpu0.iq.FU_type_0::FloatCvt                  0      0.00%     71.16% # Type of FU issued
system.cpu0.iq.FU_type_0::FloatMult                 0      0.00%     71.16% # Type of FU issued
system.cpu0.iq.FU_type_0::FloatDiv                  0      0.00%     71.16% # Type of FU issued
system.cpu0.iq.FU_type_0::FloatSqrt                 0      0.00%     71.16% # Type of FU issued
system.cpu0.iq.FU_type_0::SimdAdd                   0      0.00%     71.16% # Type of FU issued
system.cpu0.iq.FU_type_0::SimdAddAcc                0      0.00%     71.16% # Type of FU issued
system.cpu0.iq.FU_type_0::SimdAlu                   0      0.00%     71.16% # Type of FU issued
system.cpu0.iq.FU_type_0::SimdCmp                   0      0.00%     71.16% # Type of FU issued
system.cpu0.iq.FU_type_0::SimdCvt                   0      0.00%     71.16% # Type of FU issued
system.cpu0.iq.FU_type_0::SimdMisc                  0      0.00%     71.16% # Type of FU issued
system.cpu0.iq.FU_type_0::SimdMult                  0      0.00%     71.16% # Type of FU issued
system.cpu0.iq.FU_type_0::SimdMultAcc               0      0.00%     71.16% # Type of FU issued
system.cpu0.iq.FU_type_0::SimdShift                 0      0.00%     71.16% # Type of FU issued
system.cpu0.iq.FU_type_0::SimdShiftAcc              0      0.00%     71.16% # Type of FU issued
system.cpu0.iq.FU_type_0::SimdSqrt                  0      0.00%     71.16% # Type of FU issued
system.cpu0.iq.FU_type_0::SimdFloatAdd              0      0.00%     71.16% # Type of FU issued
system.cpu0.iq.FU_type_0::SimdFloatAlu              0      0.00%     71.16% # Type of FU issued
system.cpu0.iq.FU_type_0::SimdFloatCmp              0      0.00%     71.16% # Type of FU issued
system.cpu0.iq.FU_type_0::SimdFloatCvt              0      0.00%     71.16% # Type of FU issued
system.cpu0.iq.FU_type_0::SimdFloatDiv              0      0.00%     71.16% # Type of FU issued
system.cpu0.iq.FU_type_0::SimdFloatMisc             3      0.00%     71.16% # Type of FU issued
system.cpu0.iq.FU_type_0::SimdFloatMult             0      0.00%     71.16% # Type of FU issued
system.cpu0.iq.FU_type_0::SimdFloatMultAcc            0      0.00%     71.16% # Type of FU issued
system.cpu0.iq.FU_type_0::SimdFloatSqrt             0      0.00%     71.16% # Type of FU issued
system.cpu0.iq.FU_type_0::MemRead               38505     18.64%     89.80% # Type of FU issued
system.cpu0.iq.FU_type_0::MemWrite              21072     10.20%    100.00% # Type of FU issued
system.cpu0.iq.FU_type_0::IprAccess                 0      0.00%    100.00% # Type of FU issued
system.cpu0.iq.FU_type_0::InstPrefetch              0      0.00%    100.00% # Type of FU issued
system.cpu0.iq.FU_type_0::total                206595                       # Type of FU issued
system.cpu0.iq.rate                          1.056217                       # Inst issue rate
system.cpu0.iq.fu_busy_cnt                          0                       # FU busy when requested
system.cpu0.iq.fu_busy_rate                         0                       # FU busy rate (busy events/executed inst)
system.cpu0.iq.int_inst_queue_reads            577988                       # Number of integer instruction queue reads
system.cpu0.iq.int_inst_queue_writes           267349                       # Number of integer instruction queue writes
system.cpu0.iq.int_inst_queue_wakeup_accesses       205082                       # Number of integer instruction queue wakeup accesses
system.cpu0.iq.fp_inst_queue_reads                 56                       # Number of floating instruction queue reads
system.cpu0.iq.fp_inst_queue_writes                28                       # Number of floating instruction queue writes
system.cpu0.iq.fp_inst_queue_wakeup_accesses           28                       # Number of floating instruction queue wakeup accesses
system.cpu0.iq.int_alu_accesses                206567                       # Number of integer alu accesses
system.cpu0.iq.fp_alu_accesses                     28                       # Number of floating point alu accesses
system.cpu0.iew.lsq.thread0.forwLoads              71                       # Number of loads that had data forwarded from stores
system.cpu0.iew.lsq.thread0.invAddrLoads            0                       # Number of loads ignored due to an invalid address
system.cpu0.iew.lsq.thread0.squashedLoads         6654                       # Number of loads squashed
system.cpu0.iew.lsq.thread0.ignoredResponses            3                       # Number of memory responses ignored because the instruction is squashed
system.cpu0.iew.lsq.thread0.memOrderViolation           31                       # Number of memory ordering violations
system.cpu0.iew.lsq.thread0.squashedStores         2694                       # Number of stores squashed
system.cpu0.iew.lsq.thread0.invAddrSwpfs            0                       # Number of software prefetches ignored due to an invalid address
system.cpu0.iew.lsq.thread0.blockedLoads            0                       # Number of blocked loads due to partial load-store forwarding
system.cpu0.iew.lsq.thread0.rescheduledLoads           34                       # Number of loads that were rescheduled
system.cpu0.iew.lsq.thread0.cacheBlocked           55                       # Number of times an access to memory failed due to the cache being blocked
system.cpu0.iew.iewIdleCycles                       0                       # Number of cycles IEW is idle
system.cpu0.iew.iewSquashCycles                   989                       # Number of cycles IEW is squashing
system.cpu0.iew.iewBlockCycles                   4511                       # Number of cycles IEW is blocking
system.cpu0.iew.iewUnblockCycles                 1192                       # Number of cycles IEW is unblocking
system.cpu0.iew.iewDispatchedInsts             234230                       # Number of instructions dispatched to IQ
system.cpu0.iew.iewDispSquashedInsts              104                       # Number of squashed instructions skipped by dispatch
system.cpu0.iew.iewDispLoadInsts                43332                       # Number of dispatched load instructions
system.cpu0.iew.iewDispStoreInsts               23389                       # Number of dispatched store instructions
system.cpu0.iew.iewDispNonSpecInsts               142                       # Number of dispatched non-speculative instructions
system.cpu0.iew.iewIQFullEvents                    18                       # Number of times the IQ has become full, causing a stall
system.cpu0.iew.iewLSQFullEvents                 1158                       # Number of times the LSQ has become full, causing a stall
system.cpu0.iew.memOrderViolationEvents            31                       # Number of memory order violations
system.cpu0.iew.predictedTakenIncorrect           416                       # Number of branches that were predicted taken incorrectly
system.cpu0.iew.predictedNotTakenIncorrect          548                       # Number of branches that were predicted not taken incorrectly
system.cpu0.iew.branchMispredicts                 964                       # Number of branch mispredicts detected at execute
system.cpu0.iew.iewExecutedInsts               205935                       # Number of executed instructions
system.cpu0.iew.iewExecLoadInsts                38116                       # Number of load instructions executed
system.cpu0.iew.iewExecSquashedInsts              660                       # Number of squashed instructions skipped in execute
system.cpu0.iew.exec_swp                            0                       # number of swp insts executed
system.cpu0.iew.exec_nop                            9                       # number of nop insts executed
system.cpu0.iew.exec_refs                       59049                       # number of memory reference insts executed
system.cpu0.iew.exec_branches                   17839                       # Number of branches executed
system.cpu0.iew.exec_stores                     20933                       # Number of stores executed
system.cpu0.iew.exec_rate                    1.052843                       # Inst execution rate
system.cpu0.iew.wb_sent                        205313                       # cumulative count of insts sent to commit
system.cpu0.iew.wb_count                       205110                       # cumulative count of insts written-back
system.cpu0.iew.wb_producers                   160871                       # num instructions producing a value
system.cpu0.iew.wb_consumers                   320874                       # num instructions consuming a value
system.cpu0.iew.wb_penalized                        0                       # number of instrctions required to write to 'other' IQ
[...]
system.cpu7.icache.overall_miss_latency::cpu7.inst      5487250                       # number of overall miss cycles
system.cpu7.icache.overall_miss_latency::total      5487250                       # number of overall miss cycles
system.cpu7.icache.ReadReq_accesses::cpu7.inst        19659                       # number of ReadReq accesses(hits+misses)
system.cpu7.icache.ReadReq_accesses::total        19659                       # number of ReadReq accesses(hits+misses)
system.cpu7.icache.demand_accesses::cpu7.inst        19659                       # number of demand (read+write) accesses
system.cpu7.icache.demand_accesses::total        19659                       # number of demand (read+write) accesses
system.cpu7.icache.overall_accesses::cpu7.inst        19659                       # number of overall (read+write) accesses
system.cpu7.icache.overall_accesses::total        19659                       # number of overall (read+write) accesses
system.cpu7.icache.ReadReq_miss_rate::cpu7.inst     0.003764                       # miss rate for ReadReq accesses
system.cpu7.icache.ReadReq_miss_rate::total     0.003764                       # miss rate for ReadReq accesses
system.cpu7.icache.demand_miss_rate::cpu7.inst     0.003764                       # miss rate for demand accesses
system.cpu7.icache.demand_miss_rate::total     0.003764                       # miss rate for demand accesses
system.cpu7.icache.overall_miss_rate::cpu7.inst     0.003764                       # miss rate for overall accesses
system.cpu7.icache.overall_miss_rate::total     0.003764                       # miss rate for overall accesses
system.cpu7.icache.ReadReq_avg_miss_latency::cpu7.inst 74152.027027                       # average ReadReq miss latency
system.cpu7.icache.ReadReq_avg_miss_latency::total 74152.027027                       # average ReadReq miss latency
system.cpu7.icache.demand_avg_miss_latency::cpu7.inst 74152.027027                       # average overall miss latency
system.cpu7.icache.demand_avg_miss_latency::total 74152.027027                       # average overall miss latency
system.cpu7.icache.overall_avg_miss_latency::cpu7.inst 74152.027027                       # average overall miss latency
system.cpu7.icache.overall_avg_miss_latency::total 74152.027027                       # average overall miss latency
system.cpu7.icache.blocked_cycles::no_mshrs          115                       # number of cycles access was blocked
system.cpu7.icache.blocked_cycles::no_targets            0                       # number of cycles access was blocked
system.cpu7.icache.blocked::no_mshrs                1                       # number of cycles access was blocked
system.cpu7.icache.blocked::no_targets              0                       # number of cycles access was blocked
system.cpu7.icache.avg_blocked_cycles::no_mshrs          115                       # average number of cycles each access was blocked
system.cpu7.icache.avg_blocked_cycles::no_targets          nan                       # average number of cycles each access was blocked
system.cpu7.icache.fast_writes                      0                       # number of fast writes performed
system.cpu7.icache.cache_copies                     0                       # number of cache copies performed
system.cpu7.icache.ReadReq_mshr_hits::cpu7.inst           23                       # number of ReadReq MSHR hits
system.cpu7.icache.ReadReq_mshr_hits::total           23                       # number of ReadReq MSHR hits
system.cpu7.icache.demand_mshr_hits::cpu7.inst           23                       # number of demand (read+write) MSHR hits
system.cpu7.icache.demand_mshr_hits::total           23                       # number of demand (read+write) MSHR hits
system.cpu7.icache.overall_mshr_hits::cpu7.inst           23                       # number of overall MSHR hits
system.cpu7.icache.overall_mshr_hits::total           23                       # number of overall MSHR hits
system.cpu7.icache.ReadReq_mshr_misses::cpu7.inst           51                       # number of ReadReq MSHR misses
system.cpu7.icache.ReadReq_mshr_misses::total           51                       # number of ReadReq MSHR misses
system.cpu7.icache.demand_mshr_misses::cpu7.inst           51                       # number of demand (read+write) MSHR misses
system.cpu7.icache.demand_mshr_misses::total           51                       # number of demand (read+write) MSHR misses
system.cpu7.icache.overall_mshr_misses::cpu7.inst           51                       # number of overall MSHR misses
system.cpu7.icache.overall_mshr_misses::total           51                       # number of overall MSHR misses
system.cpu7.icache.ReadReq_mshr_miss_latency::cpu7.inst      4167750                       # number of ReadReq MSHR miss cycles
system.cpu7.icache.ReadReq_mshr_miss_latency::total      4167750                       # number of ReadReq MSHR miss cycles
system.cpu7.icache.demand_mshr_miss_latency::cpu7.inst      4167750                       # number of demand (read+write) MSHR miss cycles
system.cpu7.icache.demand_mshr_miss_latency::total      4167750                       # number of demand (read+write) MSHR miss cycles
system.cpu7.icache.overall_mshr_miss_latency::cpu7.inst      4167750                       # number of overall MSHR miss cycles
system.cpu7.icache.overall_mshr_miss_latency::total      4167750                       # number of overall MSHR miss cycles
system.cpu7.icache.ReadReq_mshr_miss_rate::cpu7.inst     0.002594                       # mshr miss rate for ReadReq accesses
system.cpu7.icache.ReadReq_mshr_miss_rate::total     0.002594                       # mshr miss rate for ReadReq accesses
system.cpu7.icache.demand_mshr_miss_rate::cpu7.inst     0.002594                       # mshr miss rate for demand accesses
system.cpu7.icache.demand_mshr_miss_rate::total     0.002594                       # mshr miss rate for demand accesses
system.cpu7.icache.overall_mshr_miss_rate::cpu7.inst     0.002594                       # mshr miss rate for overall accesses
system.cpu7.icache.overall_mshr_miss_rate::total     0.002594                       # mshr miss rate for overall accesses
system.cpu7.icache.ReadReq_avg_mshr_miss_latency::cpu7.inst 81720.588235                       # average ReadReq mshr miss latency
system.cpu7.icache.ReadReq_avg_mshr_miss_latency::total 81720.588235                       # average ReadReq mshr miss latency
system.cpu7.icache.demand_avg_mshr_miss_latency::cpu7.inst 81720.588235                       # average overall mshr miss latency
system.cpu7.icache.demand_avg_mshr_miss_latency::total 81720.588235                       # average overall mshr miss latency
system.cpu7.icache.overall_avg_mshr_miss_latency::cpu7.inst 81720.588235                       # average overall mshr miss latency
system.cpu7.icache.overall_avg_mshr_miss_latency::total 81720.588235                       # average overall mshr miss latency
system.cpu7.icache.no_allocate_misses               0                       # Number of misses that were no-allocate
system.membus.trans_dist::ReadReq                2999                       # Transaction distribution
system.membus.trans_dist::ReadResp               2998                       # Transaction distribution
system.membus.trans_dist::Writeback                92                       # Transaction distribution
system.membus.trans_dist::UpgradeReq               21                       # Transaction distribution
system.membus.trans_dist::SCUpgradeReq             23                       # Transaction distribution
system.membus.trans_dist::UpgradeResp              44                       # Transaction distribution
system.membus.trans_dist::SCUpgradeFailReq            5                       # Transaction distribution
system.membus.trans_dist::UpgradeFailResp            5                       # Transaction distribution
system.membus.trans_dist::ReadExReq               997                       # Transaction distribution
system.membus.trans_dist::ReadExResp              997                       # Transaction distribution
system.membus.pkt_count_system.cpu0.icache.mem_side::system.mem_ctrls.port         1217                       # Packet count per connected master and slave (bytes)
system.membus.pkt_count_system.cpu0.dcache.mem_side::system.mem_ctrls.port         2034                       # Packet count per connected master and slave (bytes)
system.membus.pkt_count_system.cpu1.icache.mem_side::system.mem_ctrls.port          106                       # Packet count per connected master and slave (bytes)
system.membus.pkt_count_system.cpu1.dcache.mem_side::system.mem_ctrls.port          318                       # Packet count per connected master and slave (bytes)
system.membus.pkt_count_system.cpu2.icache.mem_side::system.mem_ctrls.port          108                       # Packet count per connected master and slave (bytes)
system.membus.pkt_count_system.cpu2.dcache.mem_side::system.mem_ctrls.port          317                       # Packet count per connected master and slave (bytes)
system.membus.pkt_count_system.cpu3.icache.mem_side::system.mem_ctrls.port          110                       # Packet count per connected master and slave (bytes)
system.membus.pkt_count_system.cpu3.dcache.mem_side::system.mem_ctrls.port          323                       # Packet count per connected master and slave (bytes)
system.membus.pkt_count_system.cpu4.icache.mem_side::system.mem_ctrls.port          102                       # Packet count per connected master and slave (bytes)
system.membus.pkt_count_system.cpu4.dcache.mem_side::system.mem_ctrls.port          334                       # Packet count per connected master and slave (bytes)
system.membus.pkt_count_system.cpu5.icache.mem_side::system.mem_ctrls.port          110                       # Packet count per connected master and slave (bytes)
system.membus.pkt_count_system.cpu5.dcache.mem_side::system.mem_ctrls.port          323                       # Packet count per connected master and slave (bytes)
system.membus.pkt_count_system.cpu6.icache.mem_side::system.mem_ctrls.port          104                       # Packet count per connected master and slave (bytes)
system.membus.pkt_count_system.cpu6.dcache.mem_side::system.mem_ctrls.port          326                       # Packet count per connected master and slave (bytes)
system.membus.pkt_count_system.cpu7.icache.mem_side::system.mem_ctrls.port          102                       # Packet count per connected master and slave (bytes)
system.membus.pkt_count_system.cpu7.dcache.mem_side::system.mem_ctrls.port          323                       # Packet count per connected master and slave (bytes)
system.membus.pkt_count::total                   6257                       # Packet count per connected master and slave (bytes)
system.membus.pkt_size_system.cpu0.icache.mem_side::system.mem_ctrls.port        38912                       # Cumulative packet size per connected master and slave (bytes)
system.membus.pkt_size_system.cpu0.dcache.mem_side::system.mem_ctrls.port        67008                       # Cumulative packet size per connected master and slave (bytes)
system.membus.pkt_size_system.cpu1.icache.mem_side::system.mem_ctrls.port         3392                       # Cumulative packet size per connected master and slave (bytes)
system.membus.pkt_size_system.cpu1.dcache.mem_side::system.mem_ctrls.port         1280                       # Cumulative packet size per connected master and slave (bytes)
system.membus.pkt_size_system.cpu2.icache.mem_side::system.mem_ctrls.port         3456                       # Cumulative packet size per connected master and slave (bytes)
system.membus.pkt_size_system.cpu2.dcache.mem_side::system.mem_ctrls.port         1344                       # Cumulative packet size per connected master and slave (bytes)
system.membus.pkt_size_system.cpu3.icache.mem_side::system.mem_ctrls.port         3520                       # Cumulative packet size per connected master and slave (bytes)
system.membus.pkt_size_system.cpu3.dcache.mem_side::system.mem_ctrls.port         1472                       # Cumulative packet size per connected master and slave (bytes)
system.membus.pkt_size_system.cpu4.icache.mem_side::system.mem_ctrls.port         3264                       # Cumulative packet size per connected master and slave (bytes)
system.membus.pkt_size_system.cpu4.dcache.mem_side::system.mem_ctrls.port         1984                       # Cumulative packet size per connected master and slave (bytes)
system.membus.pkt_size_system.cpu5.icache.mem_side::system.mem_ctrls.port         3520                       # Cumulative packet size per connected master and slave (bytes)
system.membus.pkt_size_system.cpu5.dcache.mem_side::system.mem_ctrls.port         1600                       # Cumulative packet size per connected master and slave (bytes)
system.membus.pkt_size_system.cpu6.icache.mem_side::system.mem_ctrls.port         3328                       # Cumulative packet size per connected master and slave (bytes)
system.membus.pkt_size_system.cpu6.dcache.mem_side::system.mem_ctrls.port         1600                       # Cumulative packet size per connected master and slave (bytes)
system.membus.pkt_size_system.cpu7.icache.mem_side::system.mem_ctrls.port         3264                       # Cumulative packet size per connected master and slave (bytes)
system.membus.pkt_size_system.cpu7.dcache.mem_side::system.mem_ctrls.port         1600                       # Cumulative packet size per connected master and slave (bytes)
system.membus.pkt_size::total                  140544                       # Cumulative packet size per connected master and slave (bytes)
system.membus.snoops                             1924                       # Total snoops (count)
system.membus.snoop_fanout::samples              4137                       # Request fanout histogram
system.membus.snoop_fanout::mean                   15                       # Request fanout histogram
system.membus.snoop_fanout::stdev                   0                       # Request fanout histogram
system.membus.snoop_fanout::underflows              0      0.00%      0.00% # Request fanout histogram
system.membus.snoop_fanout::0                       0      0.00%      0.00% # Request fanout histogram
system.membus.snoop_fanout::1                       0      0.00%      0.00% # Request fanout histogram
system.membus.snoop_fanout::2                       0      0.00%      0.00% # Request fanout histogram
system.membus.snoop_fanout::3                       0      0.00%      0.00% # Request fanout histogram
system.membus.snoop_fanout::4                       0      0.00%      0.00% # Request fanout histogram
system.membus.snoop_fanout::5                       0      0.00%      0.00% # Request fanout histogram
system.membus.snoop_fanout::6                       0      0.00%      0.00% # Request fanout histogram
system.membus.snoop_fanout::7                       0      0.00%      0.00% # Request fanout histogram
system.membus.snoop_fanout::8                       0      0.00%      0.00% # Request fanout histogram
system.membus.snoop_fanout::9                       0      0.00%      0.00% # Request fanout histogram
system.membus.snoop_fanout::10                      0      0.00%      0.00% # Request fanout histogram
system.membus.snoop_fanout::11                      0      0.00%      0.00% # Request fanout histogram
system.membus.snoop_fanout::12                      0      0.00%      0.00% # Request fanout histogram
system.membus.snoop_fanout::13                      0      0.00%      0.00% # Request fanout histogram
system.membus.snoop_fanout::14                      0      0.00%      0.00% # Request fanout histogram
system.membus.snoop_fanout::15                   4137    100.00%    100.00% # Request fanout histogram
system.membus.snoop_fanout::16                      0      0.00%    100.00% # Request fanout histogram
system.membus.snoop_fanout::overflows               0      0.00%    100.00% # Request fanout histogram
system.membus.snoop_fanout::min_value              15                       # Request fanout histogram
system.membus.snoop_fanout::max_value              15                       # Request fanout histogram
system.membus.snoop_fanout::total                4137                       # Request fanout histogram
system.membus.reqLayer0.occupancy             5476496                       # Layer occupancy (ticks)
system.membus.reqLayer0.utilization               5.6                       # Layer utilization (%)
system.membus.respLayer1.occupancy            3232500                       # Layer occupancy (ticks)
system.membus.respLayer1.utilization              3.3                       # Layer utilization (%)
system.membus.respLayer2.occupancy            5103989                       # Layer occupancy (ticks)
system.membus.respLayer2.utilization              5.2                       # Layer utilization (%)
system.membus.respLayer5.occupancy             284000                       # Layer occupancy (ticks)
system.membus.respLayer5.utilization              0.3                       # Layer utilization (%)
system.membus.respLayer6.occupancy            1539898                       # Layer occupancy (ticks)
system.membus.respLayer6.utilization              1.6                       # Layer utilization (%)
system.membus.respLayer9.occupancy             288000                       # Layer occupancy (ticks)
system.membus.respLayer9.utilization              0.3                       # Layer utilization (%)
system.membus.respLayer10.occupancy           1548381                       # Layer occupancy (ticks)
system.membus.respLayer10.utilization             1.6                       # Layer utilization (%)
system.membus.respLayer13.occupancy            295250                       # Layer occupancy (ticks)
system.membus.respLayer13.utilization             0.3                       # Layer utilization (%)
system.membus.respLayer14.occupancy           1598324                       # Layer occupancy (ticks)
system.membus.respLayer14.utilization             1.6                       # Layer utilization (%)
system.membus.respLayer17.occupancy            271250                       # Layer occupancy (ticks)
system.membus.respLayer17.utilization             0.3                       # Layer utilization (%)
system.membus.respLayer18.occupancy           1611580                       # Layer occupancy (ticks)
system.membus.respLayer18.utilization             1.6                       # Layer utilization (%)
system.membus.respLayer21.occupancy            291500                       # Layer occupancy (ticks)
system.membus.respLayer21.utilization             0.3                       # Layer utilization (%)
system.membus.respLayer22.occupancy           1598804                       # Layer occupancy (ticks)
system.membus.respLayer22.utilization             1.6                       # Layer utilization (%)
system.membus.respLayer25.occupancy            281000                       # Layer occupancy (ticks)
system.membus.respLayer25.utilization             0.3                       # Layer utilization (%)
system.membus.respLayer26.occupancy           1620053                       # Layer occupancy (ticks)
system.membus.respLayer26.utilization             1.7                       # Layer utilization (%)
system.membus.respLayer29.occupancy            271750                       # Layer occupancy (ticks)
system.membus.respLayer29.utilization             0.3                       # Layer utilization (%)
system.membus.respLayer30.occupancy           1514683                       # Layer occupancy (ticks)
system.membus.respLayer30.utilization             1.5                       # Layer utilization (%)

---------- End Simulation Statistics   ----------
