
---------- Begin Simulation Statistics ----------
sim_seconds                                  0.000094                       # Number of seconds simulated
sim_ticks                                    94136500                       # Number of ticks simulated
final_tick                                   94136500                       # Number of ticks from beginning of simulation (restored from checkpoints and never reset)
sim_freq                                 1000000000000                       # Frequency of simulated ticks
host_inst_rate                                 204888                       # Simulator instruction rate (inst/s)
host_op_rate                                   208235                       # Simulator op (including micro ops) rate (op/s)
host_tick_rate                               16984156                       # Simulator tick rate (ticks/s)
host_mem_usage                                 648192                       # Number of bytes of host memory used
host_seconds                                     5.54                       # Real time elapsed on the host
sim_insts                                     1135605                       # Number of instructions simulated
sim_ops                                       1154163                       # Number of ops (including micro ops) simulated
system.voltage_domain.voltage                       1                       # Voltage in Volts
system.clk_domain.clock                          1000                       # Clock period in ticks
system.mem_ctrls.bytes_read::cpu0.inst          38784                       # Number of bytes read from this memory
system.mem_ctrls.bytes_read::cpu0.data          60672                       # Number of bytes read from this memory
system.mem_ctrls.bytes_read::cpu1.inst           3136                       # Number of bytes read from this memory
system.mem_ctrls.bytes_read::cpu1.data           1536                       # Number of bytes read from this memory
system.mem_ctrls.bytes_read::cpu2.inst           3456                       # Number of bytes read from this memory
system.mem_ctrls.bytes_read::cpu2.data           2560                       # Number of bytes read from this memory
system.mem_ctrls.bytes_read::cpu3.inst           3200                       # Number of bytes read from this memory
system.mem_ctrls.bytes_read::cpu3.data           1984                       # Number of bytes read from this memory
system.mem_ctrls.bytes_read::total             115328                       # Number of bytes read from this memory
system.mem_ctrls.bytes_inst_read::cpu0.inst        38784                       # Number of instructions bytes read from this memory
system.mem_ctrls.bytes_inst_read::cpu1.inst         3136                       # Number of instructions bytes read from this memory
system.mem_ctrls.bytes_inst_read::cpu2.inst         3456                       # Number of instructions bytes read from this memory
system.mem_ctrls.bytes_inst_read::cpu3.inst         3200                       # Number of instructions bytes read from this memory
system.mem_ctrls.bytes_inst_read::total         48576                       # Number of instructions bytes read from this memory
system.mem_ctrls.bytes_written::writebacks         5888                       # Number of bytes written to this memory
system.mem_ctrls.bytes_written::total            5888                       # Number of bytes written to this memory
system.mem_ctrls.num_reads::cpu0.inst             606                       # Number of read requests responded to by this memory
system.mem_ctrls.num_reads::cpu0.data             948                       # Number of read requests responded to by this memory
system.mem_ctrls.num_reads::cpu1.inst              49                       # Number of read requests responded to by this memory
system.mem_ctrls.num_reads::cpu1.data              24                       # Number of read requests responded to by this memory
system.mem_ctrls.num_reads::cpu2.inst              54                       # Number of read requests responded to by this memory
system.mem_ctrls.num_reads::cpu2.data              40                       # Number of read requests responded to by this memory
system.mem_ctrls.num_reads::cpu3.inst              50                       # Number of read requests responded to by this memory
system.mem_ctrls.num_reads::cpu3.data              31                       # Number of read requests responded to by this memory
system.mem_ctrls.num_reads::total                1802                       # Number of read requests responded to by this memory
system.mem_ctrls.num_writes::writebacks            92                       # Number of write requests responded to by this memory
system.mem_ctrls.num_writes::total                 92                       # Number of write requests responded to by this memory
system.mem_ctrls.bw_read::cpu0.inst         411997472                       # Total read bandwidth from this memory (bytes/s)
system.mem_ctrls.bw_read::cpu0.data         644510896                       # Total read bandwidth from this memory (bytes/s)
system.mem_ctrls.bw_read::cpu1.inst          33313327                       # Total read bandwidth from this memory (bytes/s)
system.mem_ctrls.bw_read::cpu1.data          16316732                       # Total read bandwidth from this memory (bytes/s)
system.mem_ctrls.bw_read::cpu2.inst          36712646                       # Total read bandwidth from this memory (bytes/s)
system.mem_ctrls.bw_read::cpu2.data          27194553                       # Total read bandwidth from this memory (bytes/s)
system.mem_ctrls.bw_read::cpu3.inst          33993191                       # Total read bandwidth from this memory (bytes/s)
system.mem_ctrls.bw_read::cpu3.data          21075778                       # Total read bandwidth from this memory (bytes/s)
system.mem_ctrls.bw_read::total            1225114594                       # Total read bandwidth from this memory (bytes/s)
system.mem_ctrls.bw_inst_read::cpu0.inst    411997472                       # Instruction read bandwidth from this memory (bytes/s)
system.mem_ctrls.bw_inst_read::cpu1.inst     33313327                       # Instruction read bandwidth from this memory (bytes/s)
system.mem_ctrls.bw_inst_read::cpu2.inst     36712646                       # Instruction read bandwidth from this memory (bytes/s)
system.mem_ctrls.bw_inst_read::cpu3.inst     33993191                       # Instruction read bandwidth from this memory (bytes/s)
system.mem_ctrls.bw_inst_read::total        516016635                       # Instruction read bandwidth from this memory (bytes/s)
system.mem_ctrls.bw_write::writebacks        62547471                       # Write bandwidth from this memory (bytes/s)
system.mem_ctrls.bw_write::total             62547471                       # Write bandwidth from this memory (bytes/s)
system.mem_ctrls.bw_total::writebacks        62547471                       # Total bandwidth to/from this memory (bytes/s)
system.mem_ctrls.bw_total::cpu0.inst        411997472                       # Total bandwidth to/from this memory (bytes/s)
system.mem_ctrls.bw_total::cpu0.data        644510896                       # Total bandwidth to/from this memory (bytes/s)
system.mem_ctrls.bw_total::cpu1.inst         33313327                       # Total bandwidth to/from this memory (bytes/s)
system.mem_ctrls.bw_total::cpu1.data         16316732                       # Total bandwidth to/from this memory (bytes/s)
system.mem_ctrls.bw_total::cpu2.inst         36712646                       # Total bandwidth to/from this memory (bytes/s)
system.mem_ctrls.bw_total::cpu2.data         27194553                       # Total bandwidth to/from this memory (bytes/s)
system.mem_ctrls.bw_total::cpu3.inst         33993191                       # Total bandwidth to/from this memory (bytes/s)
system.mem_ctrls.bw_total::cpu3.data         21075778                       # Total bandwidth to/from this memory (bytes/s)
system.mem_ctrls.bw_total::total           1287662065                       # Total bandwidth to/from this memory (bytes/s)
system.mem_ctrls.readReqs                        1803                       # Number of read requests accepted
system.mem_ctrls.writeReqs                         92                       # Number of write requests accepted
system.mem_ctrls.readBursts                      1803                       # Number of DRAM read bursts, including those serviced by the write queue
system.mem_ctrls.writeBursts                       92                       # Number of DRAM write bursts, including those merged in the write queue
system.mem_ctrls.bytesReadDRAM                 112640                       # Total number of bytes read from DRAM
system.mem_ctrls.bytesReadWrQ                    2752                       # Total number of bytes read from write queue
system.mem_ctrls.bytesWritten                    4288                       # Total number of bytes written to DRAM
system.mem_ctrls.bytesReadSys                  115392                       # Total read bytes from the system interface side
system.mem_ctrls.bytesWrittenSys                 5888                       # Total written bytes from the system interface side
system.mem_ctrls.servicedByWrQ                     43                       # Number of DRAM read bursts serviced by the write queue
system.mem_ctrls.mergedWrBursts                     2                       # Number of DRAM write bursts merged with an existing one
system.mem_ctrls.neitherReadNorWriteReqs            7                       # Number of requests that are neither read nor write
system.mem_ctrls.perBankRdBursts::0               181                       # Per bank write bursts
system.mem_ctrls.perBankRdBursts::1               232                       # Per bank write bursts
system.mem_ctrls.perBankRdBursts::2               177                       # Per bank write bursts
system.mem_ctrls.perBankRdBursts::3               227                       # Per bank write bursts
system.mem_ctrls.perBankRdBursts::4               163                       # Per bank write bursts
system.mem_ctrls.perBankRdBursts::5               162                       # Per bank write bursts
system.mem_ctrls.perBankRdBursts::6               231                       # Per bank write bursts
system.mem_ctrls.perBankRdBursts::7               170                       # Per bank write bursts
system.mem_ctrls.perBankRdBursts::8                14                       # Per bank write bursts
system.mem_ctrls.perBankRdBursts::9                10                       # Per bank write bursts
system.mem_ctrls.perBankRdBursts::10                0                       # Per bank write bursts
system.mem_ctrls.perBankRdBursts::11               14                       # Per bank write bursts
system.mem_ctrls.perBankRdBursts::12                9                       # Per bank write bursts
system.mem_ctrls.perBankRdBursts::13               38                       # Per bank write bursts
system.mem_ctrls.perBankRdBursts::14               40                       # Per bank write bursts
system.mem_ctrls.perBankRdBursts::15               92                       # Per bank write bursts
system.mem_ctrls.perBankWrBursts::0                 1                       # Per bank write bursts
system.mem_ctrls.perBankWrBursts::1                 1                       # Per bank write bursts
system.mem_ctrls.perBankWrBursts::2                 4                       # Per bank write bursts
system.mem_ctrls.perBankWrBursts::3                20                       # Per bank write bursts
system.mem_ctrls.perBankWrBursts::4                 0                       # Per bank write bursts
system.mem_ctrls.perBankWrBursts::5                 0                       # Per bank write bursts
system.mem_ctrls.perBankWrBursts::6                 0                       # Per bank write bursts
system.mem_ctrls.perBankWrBursts::7                14                       # Per bank write bursts
system.mem_ctrls.perBankWrBursts::8                 0                       # Per bank write bursts
system.mem_ctrls.perBankWrBursts::9                 0                       # Per bank write bursts
system.mem_ctrls.perBankWrBursts::10                0                       # Per bank write bursts
system.mem_ctrls.perBankWrBursts::11                0                       # Per bank write bursts
system.mem_ctrls.perBankWrBursts::12                0                       # Per bank write bursts
system.mem_ctrls.perBankWrBursts::13                0                       # Per bank write bursts
system.mem_ctrls.perBankWrBursts::14                0                       # Per bank write bursts
system.mem_ctrls.perBankWrBursts::15               27                       # Per bank write bursts
system.mem_ctrls.numRdRetry                         0                       # Number of times read queue was full causing retry
system.mem_ctrls.numWrRetry                         0                       # Number of times write queue was full causing retry
system.mem_ctrls.totGap                      94129000                       # Total gap between requests
system.mem_ctrls.readPktSize::0                     0                       # Read request sizes (log2)
system.mem_ctrls.readPktSize::1                     0                       # Read request sizes (log2)
system.mem_ctrls.readPktSize::2                     0                       # Read request sizes (log2)
system.mem_ctrls.readPktSize::3                     0                       # Read request sizes (log2)
system.mem_ctrls.readPktSize::4                     0                       # Read request sizes (log2)
system.mem_ctrls.readPktSize::5                     0                       # Read request sizes (log2)
system.mem_ctrls.readPktSize::6                  1803                       # Read request sizes (log2)
system.mem_ctrls.writePktSize::0                    0                       # Write request sizes (log2)
system.mem_ctrls.writePktSize::1                    0                       # Write request sizes (log2)
system.mem_ctrls.writePktSize::2                    0                       # Write request sizes (log2)
system.mem_ctrls.writePktSize::3                    0                       # Write request sizes (log2)
system.mem_ctrls.writePktSize::4                    0                       # Write request sizes (log2)
system.mem_ctrls.writePktSize::5                    0                       # Write request sizes (log2)
system.mem_ctrls.writePktSize::6                   92                       # Write request sizes (log2)
system.mem_ctrls.rdQLenPdf::0                     858                       # What read queue length does an incoming req see
system.mem_ctrls.rdQLenPdf::1                     600                       # What read queue length does an incoming req see
system.mem_ctrls.rdQLenPdf::2                     139                       # What read queue length does an incoming req see
system.mem_ctrls.rdQLenPdf::3                      65                       # What read queue length does an incoming req see
system.mem_ctrls.rdQLenPdf::4                      44                       # What read queue length does an incoming req see
system.mem_ctrls.rdQLenPdf::5                      30                       # What read queue length does an incoming req see
system.mem_ctrls.rdQLenPdf::6                      16                       # What read queue length does an incoming req see
system.mem_ctrls.rdQLenPdf::7                       6                       # What read queue length does an incoming req see
system.mem_ctrls.rdQLenPdf::8                       1                       # What read queue length does an incoming req see
system.mem_ctrls.rdQLenPdf::9                       1                       # What read queue length does an incoming req see
system.mem_ctrls.rdQLenPdf::10                      0                       # What read queue length does an incoming req see
system.mem_ctrls.rdQLenPdf::11                      0                       # What read queue length does an incoming req see
system.mem_ctrls.rdQLenPdf::12                      0                       # What read queue length does an incoming req see
system.mem_ctrls.rdQLenPdf::13                      0                       # What read queue length does an incoming req see
system.mem_ctrls.rdQLenPdf::14                      0                       # What read queue length does an incoming req see
system.mem_ctrls.rdQLenPdf::15                      0                       # What read queue length does an incoming req see
system.mem_ctrls.rdQLenPdf::16                      0                       # What read queue length does an incoming req see
system.mem_ctrls.rdQLenPdf::17                      0                       # What read queue length does an incoming req see
system.mem_ctrls.rdQLenPdf::18                      0                       # What read queue length does an incoming req see
system.mem_ctrls.rdQLenPdf::19                      0                       # What read queue length does an incoming req see
system.mem_ctrls.rdQLenPdf::20                      0                       # What read queue length does an incoming req see
system.mem_ctrls.rdQLenPdf::21                      0                       # What read queue length does an incoming req see
system.mem_ctrls.rdQLenPdf::22                      0                       # What read queue length does an incoming req see
system.mem_ctrls.rdQLenPdf::23                      0                       # What read queue length does an incoming req see
system.mem_ctrls.rdQLenPdf::24                      0                       # What read queue length does an incoming req see
system.mem_ctrls.rdQLenPdf::25                      0                       # What read queue length does an incoming req see
system.mem_ctrls.rdQLenPdf::26                      0                       # What read queue length does an incoming req see
system.mem_ctrls.rdQLenPdf::27                      0                       # What read queue length does an incoming req see
system.mem_ctrls.rdQLenPdf::28                      0                       # What read queue length does an incoming req see
system.mem_ctrls.rdQLenPdf::29                      0                       # What read queue length does an incoming req see
system.mem_ctrls.rdQLenPdf::30                      0                       # What read queue length does an incoming req see
system.mem_ctrls.rdQLenPdf::31                      0                       # What read queue length does an incoming req see
system.mem_ctrls.wrQLenPdf::0                       1                       # What write queue length does an incoming req see
system.mem_ctrls.wrQLenPdf::1                       1                       # What write queue length does an incoming req see
system.mem_ctrls.wrQLenPdf::2                       1                       # What write queue length does an incoming req see
system.mem_ctrls.wrQLenPdf::3                       1                       # What write queue length does an incoming req see
system.mem_ctrls.wrQLenPdf::4                       1                       # What write queue length does an incoming req see
system.mem_ctrls.wrQLenPdf::5                       1                       # What write queue length does an incoming req see
system.mem_ctrls.wrQLenPdf::6                       1                       # What write queue length does an incoming req see
system.mem_ctrls.wrQLenPdf::7                       1                       # What write queue length does an incoming req see
system.mem_ctrls.wrQLenPdf::8                       1                       # What write queue length does an incoming req see
system.mem_ctrls.wrQLenPdf::9                       1                       # What write queue length does an incoming req see
system.mem_ctrls.wrQLenPdf::10                      1                       # What write queue length does an incoming req see
system.mem_ctrls.wrQLenPdf::11                      1                       # What write queue length does an incoming req see
system.mem_ctrls.wrQLenPdf::12                      1                       # What write queue length does an incoming req see
system.mem_ctrls.wrQLenPdf::13                      1                       # What write queue length does an incoming req see
system.mem_ctrls.wrQLenPdf::14                      1                       # What write queue length does an incoming req see
system.mem_ctrls.wrQLenPdf::15                      2                       # What write queue length does an incoming req see
system.mem_ctrls.wrQLenPdf::16                      2                       # What write queue length does an incoming req see
system.mem_ctrls.wrQLenPdf::17                      4                       # What write queue length does an incoming req see
system.mem_ctrls.wrQLenPdf::18                      5                       # What write queue length does an incoming req see
system.mem_ctrls.wrQLenPdf::19                      5                       # What write queue length does an incoming req see
system.mem_ctrls.wrQLenPdf::20                      5                       # What write queue length does an incoming req see
system.mem_ctrls.wrQLenPdf::21                      5                       # What write queue length does an incoming req see
system.mem_ctrls.wrQLenPdf::22                      6                       # What write queue length does an incoming req see
system.mem_ctrls.wrQLenPdf::23                      4                       # What write queue length does an incoming req see
system.mem_ctrls.wrQLenPdf::24                      4                       # What write queue length does an incoming req see
system.mem_ctrls.wrQLenPdf::25                      4                       # What write queue length does an incoming req see
system.mem_ctrls.wrQLenPdf::26                      4                       # What write queue length does an incoming req see
system.mem_ctrls.wrQLenPdf::27                      4                       # What write queue length does an incoming req see
system.mem_ctrls.wrQLenPdf::28                      4                       # What write queue length does an incoming req see
system.mem_ctrls.wrQLenPdf::29                      4                       # What write queue length does an incoming req see
system.mem_ctrls.wrQLenPdf::30                      4                       # What write queue length does an incoming req see
system.mem_ctrls.wrQLenPdf::31                      4                       # What write queue length does an incoming req see
system.mem_ctrls.wrQLenPdf::32                      5                       # What write queue length does an incoming req see
system.mem_ctrls.wrQLenPdf::33                      0                       # What write queue length does an incoming req see
system.mem_ctrls.wrQLenPdf::34                      0                       # What write queue length does an incoming req see
system.mem_ctrls.wrQLenPdf::35                      0                       # What write queue length does an incoming req see
system.mem_ctrls.wrQLenPdf::36                      0                       # What write queue length does an incoming req see
system.mem_ctrls.wrQLenPdf::37                      0                       # What write queue length does an incoming req see
system.mem_ctrls.wrQLenPdf::38                      0                       # What write queue length does an incoming req see
system.mem_ctrls.wrQLenPdf::39                      0                       # What write queue length does an incoming req see
system.mem_ctrls.wrQLenPdf::40                      0                       # What write queue length does an incoming req see
system.mem_ctrls.wrQLenPdf::41                      0                       # What write queue length does an incoming req see
system.mem_ctrls.wrQLenPdf::42                      0                       # What write queue length does an incoming req see
system.mem_ctrls.wrQLenPdf::43                      0                       # What write queue length does an incoming req see
system.mem_ctrls.wrQLenPdf::44                      0                       # What write queue length does an incoming req see
system.mem_ctrls.wrQLenPdf::45                      0                       # What write queue length does an incoming req see
system.mem_ctrls.wrQLenPdf::46                      0                       # What write queue length does an incoming req see
system.mem_ctrls.wrQLenPdf::47                      0                       # What write queue length does an incoming req see
system.mem_ctrls.wrQLenPdf::48                      0                       # What write queue length does an incoming req see
system.mem_ctrls.wrQLenPdf::49                      0                       # What write queue length does an incoming req see
system.mem_ctrls.wrQLenPdf::50                      0                       # What write queue length does an incoming req see
system.mem_ctrls.wrQLenPdf::51                      0                       # What write queue length does an incoming req see
system.mem_ctrls.wrQLenPdf::52                      0                       # What write queue length does an incoming req see
system.mem_ctrls.wrQLenPdf::53                      0                       # What write queue length does an incoming req see
system.mem_ctrls.wrQLenPdf::54                      0                       # What write queue length does an incoming req see
system.mem_ctrls.wrQLenPdf::55                      0                       # What write queue length does an incoming req see
system.mem_ctrls.wrQLenPdf::56                      0                       # What write queue length does an incoming req see
system.mem_ctrls.wrQLenPdf::57                      0                       # What write queue length does an incoming req see
system.mem_ctrls.wrQLenPdf::58                      0                       # What write queue length does an incoming req see
system.mem_ctrls.wrQLenPdf::59                      0                       # What write queue length does an incoming req see
system.mem_ctrls.wrQLenPdf::60                      0                       # What write queue length does an incoming req see
system.mem_ctrls.wrQLenPdf::61                      0                       # What write queue length does an incoming req see
system.mem_ctrls.wrQLenPdf::62                      0                       # What write queue length does an incoming req see
system.mem_ctrls.wrQLenPdf::63                      0                       # What write queue length does an incoming req see
system.mem_ctrls.bytesPerActivate::samples          298                       # Bytes accessed per row activation
system.mem_ctrls.bytesPerActivate::mean    389.798658                       # Bytes accessed per row activation
system.mem_ctrls.bytesPerActivate::gmean   225.859533                       # Bytes accessed per row activation
system.mem_ctrls.bytesPerActivate::stdev   372.969357                       # Bytes accessed per row activation
system.mem_ctrls.bytesPerActivate::0-127           97     32.55%     32.55% # Bytes accessed per row activation
system.mem_ctrls.bytesPerActivate::128-255           60     20.13%     52.68% # Bytes accessed per row activation
system.mem_ctrls.bytesPerActivate::256-383           25      8.39%     61.07% # Bytes accessed per row activation
system.mem_ctrls.bytesPerActivate::384-511           20      6.71%     67.79% # Bytes accessed per row activation
system.mem_ctrls.bytesPerActivate::512-639           14      4.70%     72.48% # Bytes accessed per row activation
system.mem_ctrls.bytesPerActivate::640-767           10      3.36%     75.84% # Bytes accessed per row activation
system.mem_ctrls.bytesPerActivate::768-895            9      3.02%     78.86% # Bytes accessed per row activation
system.mem_ctrls.bytesPerActivate::896-1023            7      2.35%     81.21% # Bytes accessed per row activation
system.mem_ctrls.bytesPerActivate::1024-1151           56     18.79%    100.00% # Bytes accessed per row activation
system.mem_ctrls.bytesPerActivate::total          298                       # Bytes accessed per row activation
system.mem_ctrls.rdPerTurnAround::samples            4                       # Reads before turning the bus around for writes
system.mem_ctrls.rdPerTurnAround::mean            357                       # Reads before turning the bus around for writes
system.mem_ctrls.rdPerTurnAround::gmean    133.619813                       # Reads before turning the bus around for writes
system.mem_ctrls.rdPerTurnAround::stdev    573.420730                       # Reads before turning the bus around for writes
system.mem_ctrls.rdPerTurnAround::0-63              1     25.00%     25.00% # Reads before turning the bus around for writes
system.mem_ctrls.rdPerTurnAround::64-127            2     50.00%     75.00% # Reads before turning the bus around for writes
system.mem_ctrls.rdPerTurnAround::1216-1279            1     25.00%    100.00% # Reads before turning the bus around for writes
system.mem_ctrls.rdPerTurnAround::total             4                       # Reads before turning the bus around for writes
system.mem_ctrls.wrPerTurnAround::samples            4                       # Writes before turning the bus around for reads
system.mem_ctrls.wrPerTurnAround::mean      16.750000                       # Writes before turning the bus around for reads
system.mem_ctrls.wrPerTurnAround::gmean     16.702381                       # Writes before turning the bus around for reads
system.mem_ctrls.wrPerTurnAround::stdev      1.500000                       # Writes before turning the bus around for reads
system.mem_ctrls.wrPerTurnAround::16                3     75.00%     75.00% # Writes before turning the bus around for reads
system.mem_ctrls.wrPerTurnAround::19                1     25.00%    100.00% # Writes before turning the bus around for reads
system.mem_ctrls.wrPerTurnAround::total             4                       # Writes before turning the bus around for reads
system.mem_ctrls.totQLat                     18738250                       # Total ticks spent queuing
system.mem_ctrls.totMemAccLat                51738250                       # Total ticks spent from burst creation until serviced by the DRAM
system.mem_ctrls.totBusLat                    8800000                       # Total ticks spent in databus transfers
system.mem_ctrls.avgQLat                     10646.73                       # Average queueing delay per DRAM burst
system.mem_ctrls.avgBusLat                    5000.00                       # Average bus latency per DRAM burst
system.mem_ctrls.avgMemAccLat                29396.73                       # Average memory access latency per DRAM burst
system.mem_ctrls.avgRdBW                      1196.56                       # Average DRAM read bandwidth in MiByte/s
system.mem_ctrls.avgWrBW                        45.55                       # Average achieved write bandwidth in MiByte/s
system.mem_ctrls.avgRdBWSys                   1225.79                       # Average system read bandwidth in MiByte/s
system.mem_ctrls.avgWrBWSys                     62.55                       # Average system write bandwidth in MiByte/s
system.mem_ctrls.peakBW                      12800.00                       # Theoretical peak bandwidth in MiByte/s
system.mem_ctrls.busUtil                         9.70                       # Data bus utilization in percentage
system.mem_ctrls.busUtilRead                     9.35                       # Data bus utilization in percentage for reads
system.mem_ctrls.busUtilWrite                    0.36                       # Data bus utilization in percentage for writes
system.mem_ctrls.avgRdQLen                       1.58                       # Average read queue length when enqueuing
system.mem_ctrls.avgWrQLen                      13.63                       # Average write queue length when enqueuing
system.mem_ctrls.readRowHits                     1469                       # Number of row buffer hits during reads
system.mem_ctrls.writeRowHits                      56                       # Number of row buffer hits during writes
system.mem_ctrls.readRowHitRate                 83.47                       # Row buffer hit rate for reads
system.mem_ctrls.writeRowHitRate                62.22                       # Row buffer hit rate for writes
system.mem_ctrls.avgGap                      49672.30                       # Average gap between requests
system.mem_ctrls.pageHitRate                    82.43                       # Row buffer hit rate, read and write combined
system.mem_ctrls_0.actEnergy                  1935360                       # Energy for activate commands per rank (pJ)
system.mem_ctrls_0.preEnergy                  1056000                       # Energy for precharge commands per rank (pJ)
system.mem_ctrls_0.readEnergy                12027600                       # Energy for read commands per rank (pJ)
system.mem_ctrls_0.writeEnergy                 259200                       # Energy for write commands per rank (pJ)
system.mem_ctrls_0.refreshEnergy              6102720                       # Energy for refresh commands per rank (pJ)
system.mem_ctrls_0.actBackEnergy             56954115                       # Energy for active background per rank (pJ)
system.mem_ctrls_0.preBackEnergy              6257250                       # Energy for precharge background per rank (pJ)
system.mem_ctrls_0.totalEnergy               84592245                       # Total energy per rank (pJ)
system.mem_ctrls_0.averagePower            902.846950                       # Core power per rank (mW)
system.mem_ctrls_0.memoryStateTime::IDLE     10338250                       # Time in different power states
system.mem_ctrls_0.memoryStateTime::REF       3120000                       # Time in different power states
system.mem_ctrls_0.memoryStateTime::PRE_PDN            0                       # Time in different power states
system.mem_ctrls_0.memoryStateTime::ACT      80671750                       # Time in different power states
system.mem_ctrls_0.memoryStateTime::ACT_PDN            0                       # Time in different power states
system.mem_ctrls_1.actEnergy                   317520                       # Energy for activate commands per rank (pJ)
system.mem_ctrls_1.preEnergy                   173250                       # Energy for precharge commands per rank (pJ)
system.mem_ctrls_1.readEnergy                 1606800                       # Energy for read commands per rank (pJ)
system.mem_ctrls_1.writeEnergy                 174960                       # Energy for write commands per rank (pJ)
system.mem_ctrls_1.refreshEnergy              6102720                       # Energy for refresh commands per rank (pJ)
system.mem_ctrls_1.actBackEnergy             34961805                       # Energy for active background per rank (pJ)
system.mem_ctrls_1.preBackEnergy             25548750                       # Energy for precharge background per rank (pJ)
system.mem_ctrls_1.totalEnergy               68885805                       # Total energy per rank (pJ)
system.mem_ctrls_1.averagePower            735.213245                       # Core power per rank (mW)
system.mem_ctrls_1.memoryStateTime::IDLE     42303500                       # Time in different power states
system.mem_ctrls_1.memoryStateTime::REF       3120000                       # Time in different power states
system.mem_ctrls_1.memoryStateTime::PRE_PDN            0                       # Time in different power states
system.mem_ctrls_1.memoryStateTime::ACT      48285250                       # Time in different power states
system.mem_ctrls_1.memoryStateTime::ACT_PDN            0                       # Time in different power states
system.cpu0.branchPred.lookups                  32541                       # Number of BP lookups
system.cpu0.branchPred.condPredicted            30230                       # Number of conditional branches predicted
system.cpu0.branchPred.condIncorrect             1438                       # Number of conditional branches incorrect
system.cpu0.branchPred.BTBLookups               28695                       # Number of BTB lookups
system.cpu0.branchPred.BTBHits                  25608                       # Number of BTB hits
system.cpu0.branchPred.BTBCorrect                   0                       # Number of correct BTB predictions (this stat may not work properly.
system.cpu0.branchPred.BTBHitPct            89.242028                       # BTB Hit Percentage
system.cpu0.branchPred.usedRAS                    907                       # Number of times the RAS was used to get a target.
system.cpu0.branchPred.RASInCorrect                14                       # Number of incorrect RAS predictions.
system.cpu_voltage_domain.voltage                   1                       # Voltage in Volts
system.cpu_clk_domain.clock                       500                       # Clock period in ticks
system.cpu0.dstage2_mmu.stage2_tlb.walker.walks            0                       # Table walker walks requested
system.cpu0.dstage2_mmu.stage2_tlb.walker.walkRequestOrigin_Requested::Data            0                       # Table walker requests started/completed, data/inst
system.cpu0.dstage2_mmu.stage2_tlb.walker.walkRequestOrigin_Requested::Inst            0                       # Table walker requests started/completed, data/inst
system.cpu0.dstage2_mmu.stage2_tlb.walker.walkRequestOrigin_Requested::total            0                       # Table walker requests started/completed, data/inst
system.cpu0.dstage2_mmu.stage2_tlb.walker.walkRequestOrigin_Completed::Data            0                       # Table walker requests started/completed, data/inst
system.cpu0.dstage2_mmu.stage2_tlb.walker.walkRequestOrigin_Completed::Inst            0                       # Table walker requests started/completed, data/inst
system.cpu0.dstage2_mmu.stage2_tlb.walker.walkRequestOrigin_Completed::total            0                       # Table walker requests started/completed, data/inst
system.cpu0.dstage2_mmu.stage2_tlb.walker.walkRequestOrigin::total            0                       # Table walker requests started/completed, data/inst
system.cpu0.dstage2_mmu.stage2_tlb.inst_hits            0                       # ITB inst hits
system.cpu0.dstage2_mmu.stage2_tlb.inst_misses            0                       # ITB inst misses
system.cpu0.dstage2_mmu.stage2_tlb.read_hits            0                       # DTB read hits
system.cpu0.dstage2_mmu.stage2_tlb.read_misses            0                       # DTB read misses
system.cpu0.dstage2_mmu.stage2_tlb.write_hits            0                       # DTB write hits
system.cpu0.dstage2_mmu.stage2_tlb.write_misses            0                       # DTB write misses
system.cpu0.dstage2_mmu.stage2_tlb.flush_tlb            0                       # Number of times complete TLB was flushed
system.cpu0.dstage2_mmu.stage2_tlb.flush_tlb_mva            0                       # Number of times TLB was flushed by MVA
system.cpu0.dstage2_mmu.stage2_tlb.flush_tlb_mva_asid            0                       # Number of times TLB was flushed by MVA & ASID
system.cpu0.dstage2_mmu.stage2_tlb.flush_tlb_asid            0                       # Number of times TLB was flushed by ASID
system.cpu0.dstage2_mmu.stage2_tlb.flush_entries            0                       # Number of entries that have been flushed from TLB
system.cpu0.dstage2_mmu.stage2_tlb.align_faults            0                       # Number of TLB faults due to alignment restrictions
system.cpu0.dstage2_mmu.stage2_tlb.prefetch_faults            0                       # Number of TLB faults due to prefetch
system.cpu0.dstage2_mmu.stage2_tlb.domain_faults            0                       # Number of TLB faults due to domain restrictions
system.cpu0.dstage2_mmu.stage2_tlb.perms_faults            0                       # Number of TLB faults due to permissions restrictions
system.cpu0.dstage2_mmu.stage2_tlb.read_accesses            0                       # DTB read accesses
system.cpu0.dstage2_mmu.stage2_tlb.write_accesses            0                       # DTB write accesses
system.cpu0.dstage2_mmu.stage2_tlb.inst_accesses            0                       # ITB inst accesses
system.cpu0.dstage2_mmu.stage2_tlb.hits             0                       # DTB hits
system.cpu0.dstage2_mmu.stage2_tlb.misses            0                       # DTB misses
system.cpu0.dstage2_mmu.stage2_tlb.accesses            0                       # DTB accesses
system.cpu0.dtb.walker.walks                        0                       # Table walker walks requested
system.cpu0.dtb.walker.walkRequestOrigin_Requested::Data            0                       # Table walker requests started/completed, data/inst
system.cpu0.dtb.walker.walkRequestOrigin_Requested::Inst            0                       # Table walker requests started/completed, data/inst
system.cpu0.dtb.walker.walkRequestOrigin_Requested::total            0                       # Table walker requests started/completed, data/inst
system.cpu0.dtb.walker.walkRequestOrigin_Completed::Data            0                       # Table walker requests started/completed, data/inst
system.cpu0.dtb.walker.walkRequestOrigin_Completed::Inst            0                       # Table walker requests started/completed, data/inst
system.cpu0.dtb.walker.walkRequestOrigin_Completed::total            0                       # Table walker requests started/completed, data/inst
system.cpu0.dtb.walker.walkRequestOrigin::total            0                       # Table walker requests started/completed, data/inst
system.cpu0.dtb.inst_hits                           0                       # ITB inst hits
system.cpu0.dtb.inst_misses                         0                       # ITB inst misses
system.cpu0.dtb.read_hits                           0                       # DTB read hits
system.cpu0.dtb.read_misses                         0                       # DTB read misses
system.cpu0.dtb.write_hits                          0                       # DTB write hits
system.cpu0.dtb.write_misses                        0                       # DTB write misses
system.cpu0.dtb.flush_tlb                           0                       # Number of times complete TLB was flushed
system.cpu0.dtb.flush_tlb_mva                       0                       # Number of times TLB was flushed by MVA
system.cpu0.dtb.flush_tlb_mva_asid                  0                       # Number of times TLB was flushed by MVA & ASID
system.cpu0.dtb.flush_tlb_asid                      0                       # Number of times TLB was flushed by ASID
system.cpu0.dtb.flush_entries                       0                       # Number of entries that have been flushed from TLB
system.cpu0.dtb.align_faults                        0                       # Number of TLB faults due to alignment restrictions
system.cpu0.dtb.prefetch_faults                     0                       # Number of TLB faults due to prefetch
system.cpu0.dtb.domain_faults                       0                       # Number of TLB faults due to domain restrictions
system.cpu0.dtb.perms_faults                        0                       # Number of TLB faults due to permissions restrictions
system.cpu0.dtb.read_accesses                       0                       # DTB read accesses
system.cpu0.dtb.write_accesses                      0                       # DTB write accesses
system.cpu0.dtb.inst_accesses                       0                       # ITB inst accesses
system.cpu0.dtb.hits                                0                       # DTB hits
system.cpu0.dtb.misses                              0                       # DTB misses
system.cpu0.dtb.accesses                            0                       # DTB accesses
system.cpu0.istage2_mmu.stage2_tlb.walker.walks            0                       # Table walker walks requested
system.cpu0.istage2_mmu.stage2_tlb.walker.walkRequestOrigin_Requested::Data            0                       # Table walker requests started/completed, data/inst
system.cpu0.istage2_mmu.stage2_tlb.walker.walkRequestOrigin_Requested::Inst            0                       # Table walker requests started/completed, data/inst
system.cpu0.istage2_mmu.stage2_tlb.walker.walkRequestOrigin_Requested::total            0                       # Table walker requests started/completed, data/inst
system.cpu0.istage2_mmu.stage2_tlb.walker.walkRequestOrigin_Completed::Data            0                       # Table walker requests started/completed, data/inst
system.cpu0.istage2_mmu.stage2_tlb.walker.walkRequestOrigin_Completed::Inst            0                       # Table walker requests started/completed, data/inst
system.cpu0.istage2_mmu.stage2_tlb.walker.walkRequestOrigin_Completed::total            0                       # Table walker requests started/completed, data/inst
system.cpu0.istage2_mmu.stage2_tlb.walker.walkRequestOrigin::total            0                       # Table walker requests started/completed, data/inst
system.cpu0.istage2_mmu.stage2_tlb.inst_hits            0                       # ITB inst hits
system.cpu0.istage2_mmu.stage2_tlb.inst_misses            0                       # ITB inst misses
system.cpu0.istage2_mmu.stage2_tlb.read_hits            0                       # DTB read hits
system.cpu0.istage2_mmu.stage2_tlb.read_misses            0                       # DTB read misses
system.cpu0.istage2_mmu.stage2_tlb.write_hits            0                       # DTB write hits
system.cpu0.istage2_mmu.stage2_tlb.write_misses            0                       # DTB write misses
system.cpu0.istage2_mmu.stage2_tlb.flush_tlb            0                       # Number of times complete TLB was flushed
system.cpu0.istage2_mmu.stage2_tlb.flush_tlb_mva            0                       # Number of times TLB was flushed by MVA
system.cpu0.istage2_mmu.stage2_tlb.flush_tlb_mva_asid            0                       # Number of times TLB was flushed by MVA & ASID
system.cpu0.istage2_mmu.stage2_tlb.flush_tlb_asid            0                       # Number of times TLB was flushed by ASID
system.cpu0.istage2_mmu.stage2_tlb.flush_entries            0                       # Number of entries that have been flushed from TLB
system.cpu0.istage2_mmu.stage2_tlb.align_faults            0                       # Number of TLB faults due to alignment restrictions
system.cpu0.istage2_mmu.stage2_tlb.prefetch_faults            0                       # Number of TLB faults due to prefetch
system.cpu0.istage2_mmu.stage2_tlb.domain_faults            0                       # Number of TLB faults due to domain restrictions
system.cpu0.istage2_mmu.stage2_tlb.perms_faults            0                       # Number of TLB faults due to permissions restrictions
system.cpu0.istage2_mmu.stage2_tlb.read_accesses            0                       # DTB read accesses
system.cpu0.istage2_mmu.stage2_tlb.write_accesses            0                       # DTB write accesses
system.cpu0.istage2_mmu.stage2_tlb.inst_accesses            0                       # ITB inst accesses
system.cpu0.istage2_mmu.stage2_tlb.hits             0                       # DTB hits
system.cpu0.istage2_mmu.stage2_tlb.misses            0                       # DTB misses
system.cpu0.istage2_mmu.stage2_tlb.accesses            0                       # DTB accesses
system.cpu0.itb.walker.walks                        0                       # Table walker walks requested
system.cpu0.itb.walker.walkRequestOrigin_Requested::Data            0                       # Table walker requests started/completed, data/inst
system.cpu0.itb.walker.walkRequestOrigin_Requested::Inst            0                       # Table walker requests started/completed, data/inst
system.cpu0.itb.walker.walkRequestOrigin_Requested::total            0                       # Table walker requests started/completed, data/inst
system.cpu0.itb.walker.walkRequestOrigin_Completed::Data            0                       # Table walker requests started/completed, data/inst
system.cpu0.itb.walker.walkRequestOrigin_Completed::Inst            0                       # Table walker requests started/completed, data/inst
system.cpu0.itb.walker.walkRequestOrigin_Completed::total            0                       # Table walker requests started/completed, data/inst
system.cpu0.itb.walker.walkRequestOrigin::total            0                       # Table walker requests started/completed, data/inst
system.cpu0.itb.inst_hits                           0                       # ITB inst hits
system.cpu0.itb.inst_misses                         0                       # ITB inst misses
system.cpu0.itb.read_hits                           0                       # DTB read hits
system.cpu0.itb.read_misses                         0                       # DTB read misses
system.cpu0.itb.write_hits                          0                       # DTB write hits
system.cpu0.itb.write_misses                        0                       # DTB write misses
system.cpu0.itb.flush_tlb                           0                       # Number of times complete TLB was flushed
system.cpu0.itb.flush_tlb_mva                       0                       # Number of times TLB was flushed by MVA
system.cpu0.itb.flush_tlb_mva_asid                  0                       # Number of times TLB was flushed by MVA & ASID
system.cpu0.itb.flush_tlb_asid                      0                       # Number of times TLB was flushed by ASID
system.cpu0.itb.flush_entries                       0                       # Number of entries that have been flushed from TLB
system.cpu0.itb.align_faults                        0                       # Number of TLB faults due to alignment restrictions
system.cpu0.itb.prefetch_faults                     0                       # Number of TLB faults due to prefetch
system.cpu0.itb.domain_faults                       0                       # Number of TLB faults due to domain restrictions
system.cpu0.itb.perms_faults                        0                       # Number of TLB faults due to permissions restrictions
system.cpu0.itb.read_accesses                       0                       # DTB read accesses
system.cpu0.itb.write_accesses                      0                       # DTB write accesses
system.cpu0.itb.inst_accesses                       0                       # ITB inst accesses
system.cpu0.itb.hits                                0                       # DTB hits
system.cpu0.itb.misses                              0                       # DTB misses
system.cpu0.itb.accesses                            0                       # DTB accesses
system.cpu0.workload.num_syscalls                 135                       # Number of system calls
system.cpu0.numCycles                          188274                       # number of cpu cycles simulated
system.cpu0.numWorkItemsStarted                     0                       # number of work items this cpu started
system.cpu0.numWorkItemsCompleted                   0                       # number of work items this cpu completed
system.cpu0.fetch.icacheStallCycles             55344                       # Number of cycles fetch is stalled on an Icache miss
system.cpu0.fetch.Insts                        350439                       # Number of instructions fetch has processed
system.cpu0.fetch.Branches                      32541                       # Number of branches that fetch encountered
system.cpu0.fetch.predictedBranches             26515                       # Number of branches that fetch has predicted taken
system.cpu0.fetch.Cycles                        96306                       # Number of cycles fetch has run and was not squashing or blocked
system.cpu0.fetch.SquashCycles                   3023                       # Number of cycles fetch has spent squashing
system.cpu0.fetch.MiscStallCycles                   1                       # Number of cycles fetch has spent waiting on interrupts, or bad addresses, or out of MSHRs
system.cpu0.fetch.PendingTrapStallCycles            1                       # Number of stall cycles due to pending traps
system.cpu0.fetch.CacheLines                    42286                       # Number of cache lines fetched
system.cpu0.fetch.IcacheSquashes                  641                       # Number of outstanding Icache misses that were squashed
system.cpu0.fetch.rateDist::samples            153163                       # Number of instructions fetched each cycle (Total)
system.cpu0.fetch.rateDist::mean             2.404301                       # Number of instructions fetched each cycle (Total)
system.cpu0.fetch.rateDist::stdev            3.425778                       # Number of instructions fetched each cycle (Total)
system.cpu0.fetch.rateDist::underflows              0      0.00%      0.00% # Number of instructions fetched each cycle (Total)
system.cpu0.fetch.rateDist::0                   98528     64.33%     64.33% # Number of instructions fetched each cycle (Total)
system.cpu0.fetch.rateDist::1                    1923      1.26%     65.58% # Number of instructions fetched each cycle (Total)
system.cpu0.fetch.rateDist::2                    2637      1.72%     67.31% # Number of instructions fetched each cycle (Total)
system.cpu0.fetch.rateDist::3                     805      0.53%     67.83% # Number of instructions fetched each cycle (Total)
system.cpu0.fetch.rateDist::4                    2809      1.83%     69.67% # Number of instructions fetched each cycle (Total)
system.cpu0.fetch.rateDist::5                     707      0.46%     70.13% # Number of instructions fetched each cycle (Total)
system.cpu0.fetch.rateDist::6                    2385      1.56%     71.68% # Number of instructions fetched each cycle (Total)
system.cpu0.fetch.rateDist::7                   17395     11.36%     83.04% # Number of instructions fetched each cycle (Total)
system.cpu0.fetch.rateDist::8                   25974     16.96%    100.00% # Number of instructions fetched each cycle (Total)
system.cpu0.fetch.rateDist::overflows               0      0.00%    100.00% # Number of instructions fetched each cycle (Total)
system.cpu0.fetch.rateDist::min_value               0                       # Number of instructions fetched each cycle (Total)
system.cpu0.fetch.rateDist::max_value               8                       # Number of instructions fetched each cycle (Total)
system.cpu0.fetch.rateDist::total              153163                       # Number of instructions fetched each cycle (Total)
system.cpu0.fetch.branchRate                 0.172839                       # Number of branch fetches per cycle
system.cpu0.fetch.rate                       1.861324                       # Number of inst fetches per cycle
system.cpu0.decode.IdleCycles                   52092                       # Number of cycles decode is idle
system.cpu0.decode.BlockedCycles                47842                       # Number of cycles decode is blocked
system.cpu0.decode.RunCycles                    49950                       # Number of cycles decode is running
system.cpu0.decode.UnblockCycles                 2071                       # Number of cycles decode is unblocking
system.cpu0.decode.SquashCycles                  1208                       # Number of cycles decode is squashing
system.cpu0.decode.BranchResolved                 976                       # Number of times decode resolved a branch
system.cpu0.decode.BranchMispred                  320                       # Number of times decode detected a branch misprediction
system.cpu0.decode.DecodedInsts                360459                       # Number of instructions handled by decode
system.cpu0.decode.SquashedInsts                 1131                       # Number of squashed instructions handled by decode
system.cpu0.rename.SquashCycles                  1208                       # Number of cycles rename is squashing
system.cpu0.rename.IdleCycles                   53895                       # Number of cycles rename is idle
system.cpu0.rename.BlockCycles                   4833                       # Number of cycles rename is blocking
system.cpu0.rename.serializeStallCycles          7782                       # count of cycles rename stalled for serializing inst
system.cpu0.rename.RunCycles                    50133                       # Number of cycles rename is running
system.cpu0.rename.UnblockCycles                35312                       # Number of cycles rename is unblocking
system.cpu0.rename.RenamedInsts                355150                       # Number of instructions processed by rename
system.cpu0.rename.ROBFullEvents                  138                       # Number of times rename has blocked due to ROB full
system.cpu0.rename.IQFullEvents                   246                       # Number of times rename has blocked due to IQ full
system.cpu0.rename.LQFullEvents                   350                       # Number of times rename has blocked due to LQ full
system.cpu0.rename.SQFullEvents                 33988                       # Number of times rename has blocked due to SQ full
system.cpu0.rename.RenamedOperands             451648                       # Number of destination operands rename has renamed
system.cpu0.rename.RenameLookups              1753817                       # Number of register rename lookups that rename has made
system.cpu0.rename.int_rename_lookups          568996                       # Number of integer rename lookups
system.cpu0.rename.fp_rename_lookups               22                       # Number of floating rename lookups
system.cpu0.rename.CommittedMaps               422630                       # Number of HB maps that are committed
system.cpu0.rename.UndoneMaps                   29018                       # Number of HB maps that are undone due to squashing
system.cpu0.rename.serializingInsts               144                       # count of serializing insts renamed
system.cpu0.rename.tempSerializingInsts           142                       # count of temporary serializing insts renamed
system.cpu0.rename.skidInsts                    11436                       # count of insts added to the skid buffer
system.cpu0.memDep0.insertedLoads               74980                       # Number of loads inserted to the mem dependence unit.
system.cpu0.memDep0.insertedStores              22785                       # Number of stores inserted to the mem dependence unit.
system.cpu0.memDep0.conflictingLoads             1487                       # Number of conflicting loads.
system.cpu0.memDep0.conflictingStores             613                       # Number of conflicting stores.
system.cpu0.iq.iqInstsAdded                    348538                       # Number of instructions added to the IQ (excludes non-spec)
system.cpu0.iq.iqNonSpecInstsAdded                296                       # Number of non-speculative instructions added to the IQ
system.cpu0.iq.iqInstsIssued                   342172                       # Number of instructions issued
system.cpu0.iq.iqSquashedInstsIssued               63                       # Number of squashed instructions issued
system.cpu0.iq.iqSquashedInstsExamined          17710                       # Number of squashed instructions iterated over during squash; mainly for profiling
system.cpu0.iq.iqSquashedOperandsExamined        47299                       # Number of squashed operands that are examined and possibly removed from graph
system.cpu0.iq.iqSquashedNonSpecRemoved            78                       # Number of squashed non-spec instructions that were removed
system.cpu0.iq.issued_per_cycle::samples       153163                       # Number of insts issued each cycle
system.cpu0.iq.issued_per_cycle::mean        2.234038                       # Number of insts issued each cycle
system.cpu0.iq.issued_per_cycle::stdev       2.571563                       # Number of insts issued each cycle
system.cpu0.iq.issued_per_cycle::underflows            0      0.00%      0.00% # Number of insts issued each cycle
system.cpu0.iq.issued_per_cycle::0              59710     38.98%     38.98% # Number of insts issued each cycle
system.cpu0.iq.issued_per_cycle::1              21152     13.81%     52.79% # Number of insts issued each cycle
system.cpu0.iq.issued_per_cycle::2               6687      4.37%     57.16% # Number of insts issued each cycle
system.cpu0.iq.issued_per_cycle::3              33143     21.64%     78.80% # Number of insts issued each cycle
system.cpu0.iq.issued_per_cycle::4               8470      5.53%     84.33% # Number of insts issued each cycle
system.cpu0.iq.issued_per_cycle::5               3126      2.04%     86.37% # Number of insts issued each cycle
system.cpu0.iq.issued_per_cycle::6               2907      1.90%     88.27% # Number of insts issued each cycle
system.cpu0.iq.issued_per_cycle::7               2479      1.62%     89.89% # Number of insts issued each cycle
system.cpu0.iq.issued_per_cycle::8              15489     10.11%    100.00% # Number of insts issued each cycle
system.cpu0.iq.issued_per_cycle::overflows            0      0.00%    100.00% # Number of insts issued each cycle
system.cpu0.iq.issued_per_cycle::min_value            0                       # Number of insts issued each cycle
system.cpu0.iq.issued_per_cycle::max_value            8                       # Number of insts issued each cycle
system.cpu0.iq.issued_per_cycle::total         153163                       # Number of insts issued each cycle
system.cpu0.iq.fu_full::No_OpClass                  0      0.00%      0.00% # attempts to use FU when none available
system.cpu0.iq.fu_full::IntAlu                   1067      6.55%      6.55% # attempts to use FU when none available
system.cpu0.iq.fu_full::IntMult                 14732     90.50%     97.05% # attempts to use FU when none available
system.cpu0.iq.fu_full::IntDiv                      0      0.00%     97.05% # attempts to use FU when none available
system.cpu0.iq.fu_full::FloatAdd                    0      0.00%     97.05% # attempts to use FU when none available
system.cpu0.iq.fu_full::FloatCmp                    0      0.00%     97.05% # attempts to use FU when none available
system.cpu0.iq.fu_full::FloatCvt                    0      0.00%     97.05% # attempts to use FU when none available
system.cpu0.iq.fu_full::FloatMult                   0      0.00%     97.05% # attempts to use FU when none available
system.cpu0.iq.fu_full::FloatDiv                    0      0.00%     97.05% # attempts to use FU when none available
system.cpu0.iq.fu_full::FloatSqrt                   0      0.00%     97.05% # attempts to use FU when none available
system.cpu0.iq.fu_full::SimdAdd                     0      0.00%     97.05% # attempts to use FU when none available
system.cpu0.iq.fu_full::SimdAddAcc                  0      0.00%     97.05% # attempts to use FU when none available
system.cpu0.iq.fu_full::SimdAlu                     0      0.00%     97.05% # attempts to use FU when none available
system.cpu0.iq.fu_full::SimdCmp                     0      0.00%     97.05% # attempts to use FU when none available
system.cpu0.iq.fu_full::SimdCvt                     0      0.00%     97.05% # attempts to use FU when none available
system.cpu0.iq.fu_full::SimdMisc                    0      0.00%     97.05% # attempts to use FU when none available
system.cpu0.iq.fu_full::SimdMult                    0      0.00%     97.05% # attempts to use FU when none available
system.cpu0.iq.fu_full::SimdMultAcc                 0      0.00%     97.05% # attempts to use FU when none available
system.cpu0.iq.fu_full::SimdShift                   0      0.00%     97.05% # attempts to use FU when none available
system.cpu0.iq.fu_full::SimdShiftAcc                0      0.00%     97.05% # attempts to use FU when none available
system.cpu0.iq.fu_full::SimdSqrt                    0      0.00%     97.05% # attempts to use FU when none available
system.cpu0.iq.fu_full::SimdFloatAdd                0      0.00%     97.05% # attempts to use FU when none available
system.cpu0.iq.fu_full::SimdFloatAlu                0      0.00%     97.05% # attempts to use FU when none available
system.cpu0.iq.fu_full::SimdFloatCmp                0      0.00%     97.05% # attempts to use FU when none available
system.cpu0.iq.fu_full::SimdFloatCvt                0      0.00%     97.05% # attempts to use FU when none available
system.cpu0.iq.fu_full::SimdFloatDiv                0      0.00%     97.05% # attempts to use FU when none available
system.cpu0.iq.fu_full::SimdFloatMisc               0      0.00%     97.05% # attempts to use FU when none available
system.cpu0.iq.fu_full::SimdFloatMult               0      0.00%     97.05% # attempts to use FU when none available
system.cpu0.iq.fu_full::SimdFloatMultAcc            0      0.00%     97.05% # attempts to use FU when none available
system.cpu0.iq.fu_full::SimdFloatSqrt               0      0.00%     97.05% # attempts to use FU when none available
system.cpu0.iq.fu_full::MemRead                   227      1.39%     98.45% # attempts to use FU when none available
system.cpu0.iq.fu_full::MemWrite                  253      1.55%    100.00% # attempts to use FU when none available
system.cpu0.iq.fu_full::IprAccess                   0      0.00%    100.00% # attempts to use FU when none available
system.cpu0.iq.fu_full::InstPrefetch                0      0.00%    100.00% # attempts to use FU when none available
system.cpu0.iq.FU_type_0::No_OpClass                0      0.00%      0.00% # Type of FU issued
system.cpu0.iq.FU_type_0::IntAlu               194428     56.82%     56.82% # Type of FU issued
system.cpu0.iq.FU_type_0::IntMult               51352     15.01%     71.83% # Type of FU issued
system.cpu0.iq.FU_type_0::IntDiv                    0      0.00%     71.83% # Type of FU issued
system.cpu0.iq.FU_type_0::FloatAdd                  0      0.00%     71.83% # Type of FU issued
system.cpu0.iq.FU_type_0::FloatCmp                  0      0.00%     71.83% # Type of FU issued
system.cpu0.iq.FU_type_0::FloatCvt                  0      0.00%     71.83% # Type of FU issued
system.cpu0.iq.FU_type_0::FloatMult                 0      0.00%     71.83% # Type of FU issued
system.cpu0.iq.FU_type_0::FloatDiv                  0      0.00%     71.83% # Type of FU issued
system.cpu0.iq.FU_type_0::FloatSqrt                 0      0.00%     71.83% # Type of FU issued
system.cpu0.iq.FU_type_0::SimdAdd                   0      0.00%     71.83% # Type of FU issued
system.cpu0.iq.FU_type_0::SimdAddAcc                0      0.00%     71.83% # Type of FU issued
system.cpu0.iq.FU_type_0::SimdAlu                   0      0.00%     71.83% # Type of FU issued
system.cpu0.iq.FU_type_0::SimdCmp                   0      0.00%     71.83% # Type of FU issued
system.cpu0.iq.FU_type_0::SimdCvt                   0      0.00%     71.83% # Type of FU issued
system.cpu0.iq.FU_type_0::SimdMisc                  0      0.00%     71.83% # Type of FU issued
system.cpu0.iq.FU_type_0::SimdMult                  0      0.00%     71.83% # Type of FU issued
system.cpu0.iq.FU_type_0::SimdMultAcc               0      0.00%     71.83% # Type of FU issued
system.cpu0.iq.FU_type_0::SimdShift                 0      0.00%     71.83% # Type of FU issued
system.cpu0.iq.FU_type_0::SimdShiftAcc              0      0.00%     71.83% # Type of FU issued
system.cpu0.iq.FU_type_0::SimdSqrt                  0      0.00%     71.83% # Type of FU issued
system.cpu0.iq.FU_type_0::SimdFloatAdd              0      0.00%     71.83% # Type of FU issued
system.cpu0.iq.FU_type_0::SimdFloatAlu              0      0.00%     71.83% # Type of FU issued
system.cpu0.iq.FU_type_0::SimdFloatCmp              0      0.00%     71.83% # Type of FU issued
system.cpu0.iq.FU_type_0::SimdFloatCvt              0      0.00%     71.83% # Type of FU issued
system.cpu0.iq.FU_type_0::SimdFloatDiv              0      0.00%     71.83% # Type of FU issued
system.cpu0.iq.FU_type_0::SimdFloatMisc             3      0.00%     71.83% # Type of FU issued
system.cpu0.iq.FU_type_0::SimdFloatMult             0      0.00%     71.83% # Type of FU issued
system.cpu0.iq.FU_type_0::SimdFloatMultAcc            0      0.00%     71.83% # Type of FU issued
system.cpu0.iq.FU_type_0::SimdFloatSqrt             0      0.00%     71.83% # Type of FU issued
system.cpu0.iq.FU_type_0::MemRead               74474     21.77%     93.60% # Type of FU issued
system.cpu0.iq.FU_type_0::MemWrite              21915      6.40%    100.00% # Type of FU issued
system.cpu0.iq.FU_type_0::IprAccess                 0      0.00%    100.00% # Type of FU issued
system.cpu0.iq.FU_type_0::InstPrefetch              0      0.00%    100.00% # Type of FU issued
system.cpu0.iq.FU_type_0::total                342172                       # Type of FU issued
system.cpu0.iq.rate                          1.817415                       # Inst issue rate
system.cpu0.iq.fu_busy_cnt                      16279                       # FU busy when requested
system.cpu0.iq.fu_busy_rate                  0.047575                       # FU busy rate (busy events/executed inst)
system.cpu0.iq.int_inst_queue_reads            853788                       # Number of integer instruction queue reads
system.cpu0.iq.int_inst_queue_writes           366572                       # Number of integer instruction queue writes
system.cpu0.iq.int_inst_queue_wakeup_accesses       337938                       # Number of integer instruction queue wakeup accesses
system.cpu0.iq.fp_inst_queue_reads                 61                       # Number of floating instruction queue reads
system.cpu0.iq.fp_inst_queue_writes                28                       # Number of floating instruction queue writes
system.cpu0.iq.fp_inst_queue_wakeup_accesses           28                       # Number of floating instruction queue wakeup accesses
system.cpu0.iq.int_alu_accesses                358418                       # Number of integer alu accesses
system.cpu0.iq.fp_alu_accesses                     33                       # Number of floating point alu accesses
system.cpu0.iew.lsq.thread0.forwLoads             122                       # Number of loads that had data forwarded from stores
system.cpu0.iew.lsq.thread0.invAddrLoads            0                       # Number of loads ignored due to an invalid address
system.cpu0.iew.lsq.thread0.squashedLoads         4510                       # Number of loads squashed
system.cpu0.iew.lsq.thread0.ignoredResponses            4                       # Number of memory responses ignored because the instruction is squashed
system.cpu0.iew.lsq.thread0.memOrderViolation           56                       # Number of memory ordering violations
system.cpu0.iew.lsq.thread0.squashedStores         1516                       # Number of stores squashed
system.cpu0.iew.lsq.thread0.invAddrSwpfs            0                       # Number of software prefetches ignored due to an invalid address
system.cpu0.iew.lsq.thread0.blockedLoads            0                       # Number of blocked loads due to partial load-store forwarding
system.cpu0.iew.lsq.thread0.rescheduledLoads          161                       # Number of loads that were rescheduled
system.cpu0.iew.lsq.thread0.cacheBlocked           55                       # Number of times an access to memory failed due to the cache being blocked
system.cpu0.iew.iewIdleCycles                       0                       # Number of cycles IEW is idle
system.cpu0.iew.iewSquashCycles                  1208                       # Number of cycles IEW is squashing
system.cpu0.iew.iewBlockCycles                   2184                       # Number of cycles IEW is blocking
system.cpu0.iew.iewUnblockCycles                 2446                       # Number of cycles IEW is unblocking
system.cpu0.iew.iewDispatchedInsts             348842                       # Number of instructions dispatched to IQ
system.cpu0.iew.iewDispSquashedInsts              240                       # Number of squashed instructions skipped by dispatch
system.cpu0.iew.iewDispLoadInsts                74980                       # Number of dispatched load instructions
system.cpu0.iew.iewDispStoreInsts               22785                       # Number of dispatched store instructions
system.cpu0.iew.iewDispNonSpecInsts               133                       # Number of dispatched non-speculative instructions
system.cpu0.iew.iewIQFullEvents                    28                       # Number of times the IQ has become full, causing a stall
system.cpu0.iew.iewLSQFullEvents                 2408                       # Number of times the LSQ has become full, causing a stall
system.cpu0.iew.memOrderViolationEvents            56                       # Number of memory order violations
system.cpu0.iew.predictedTakenIncorrect           671                       # Number of branches that were predicted taken incorrectly
system.cpu0.iew.predictedNotTakenIncorrect          563                       # Number of branches that were predicted not taken incorrectly
system.cpu0.iew.branchMispredicts                1234                       # Number of branch mispredicts detected at execute
system.cpu0.iew.iewExecutedInsts               340320                       # Number of executed instructions
system.cpu0.iew.iewExecLoadInsts                73737                       # Number of load instructions executed
system.cpu0.iew.iewExecSquashedInsts             1852                       # Number of squashed instructions skipped in execute
system.cpu0.iew.exec_swp                            0                       # number of swp insts executed
system.cpu0.iew.exec_nop                            8                       # number of nop insts executed
system.cpu0.iew.exec_refs                       95472                       # number of memory reference insts executed
system.cpu0.iew.exec_branches                   28316                       # Number of branches executed
system.cpu0.iew.exec_stores                     21735                       # Number of stores executed
system.cpu0.iew.exec_rate                    1.807578                       # Inst execution rate
system.cpu0.iew.wb_sent                        338275                       # cumulative count of insts sent to commit
system.cpu0.iew.wb_count                       337966                       # cumulative count of insts written-back
system.cpu0.iew.wb_producers                   262657                       # num instructions producing a value
system.cpu0.iew.wb_consumers                   408486                       # num instructions consuming a value
system.cpu0.iew.wb_penalized                        0                       # number of instrctions required to write to 'other' IQ
system.cpu0.iew.wb_rate                      1.795075                       # insts written-back per cycle
system.cpu0.iew.wb_fanout                    0.643001                       # average fanout of values written-back
system.cpu0.iew.wb_penalized_rate                   0                       # fraction of instructions written-back that wrote to 'other' IQ
system.cpu0.commit.commitSquashedInsts          17721                       # The number of squashed insts skipped by commit
system.cpu0.commit.commitNonSpecStalls            218                       # The number of times commit has been forced to stall to communicate backwards
system.cpu0.commit.branchMispredicts             1135                       # The number of times a branch was mispredicted
system.cpu0.commit.committed_per_cycle::samples       150471                       # Number of insts commited each cycle
system.cpu0.commit.committed_per_cycle::mean     2.200584                       # Number of insts commited each cycle
system.cpu0.commit.committed_per_cycle::stdev     2.823962                       # Number of insts commited each cycle
system.cpu0.commit.committed_per_cycle::underflows            0      0.00%      0.00% # Number of insts commited each cycle
system.cpu0.commit.committed_per_cycle::0        61956     41.17%     41.17% # Number of insts commited each cycle
system.cpu0.commit.committed_per_cycle::1        35388     23.52%     64.69% # Number of insts commited each cycle
system.cpu0.commit.committed_per_cycle::2         8229      5.47%     70.16% # Number of insts commited each cycle
system.cpu0.commit.committed_per_cycle::3         1496      0.99%     71.16% # Number of insts commited each cycle
system.cpu0.commit.committed_per_cycle::4         4048      2.69%     73.85% # Number of insts commited each cycle
system.cpu0.commit.committed_per_cycle::5        17045     11.33%     85.17% # Number of insts commited each cycle
system.cpu0.commit.committed_per_cycle::6         2338      1.55%     86.73% # Number of insts commited each cycle
system.cpu0.commit.committed_per_cycle::7          423      0.28%     87.01% # Number of insts commited each cycle
system.cpu0.commit.committed_per_cycle::8        19548     12.99%    100.00% # Number of insts commited each cycle
system.cpu0.commit.committed_per_cycle::overflows            0      0.00%    100.00% # Number of insts commited each cycle
system.cpu0.commit.committed_per_cycle::min_value            0                       # Number of insts commited each cycle
system.cpu0.commit.committed_per_cycle::max_value            8                       # Number of insts commited each cycle
system.cpu0.commit.committed_per_cycle::total       150471                       # Number of insts commited each cycle
system.cpu0.commit.committedInsts              316868                       # Number of instructions committed
system.cpu0.commit.committedOps                331124                       # Number of ops (including micro ops) committed
system.cpu0.commit.swp_count                        0                       # Number of s/w prefetches committed
system.cpu0.commit.refs                         91739                       # Number of memory references committed
system.cpu0.commit.loads                        70470                       # Number of loads committed
system.cpu0.commit.membars                        128                       # Number of memory barriers committed
system.cpu0.commit.branches                     27187                       # Number of branches committed
system.cpu0.commit.fp_insts                        28                       # Number of committed floating point instructions.
system.cpu0.commit.int_insts                   304513                       # Number of committed integer instructions.
system.cpu0.commit.function_calls                 334                       # Number of function calls committed.
system.cpu0.commit.op_class_0::No_OpClass            0      0.00%      0.00% # Class of committed instruction
system.cpu0.commit.op_class_0::IntAlu          188156     56.82%     56.82% # Class of committed instruction
system.cpu0.commit.op_class_0::IntMult          51226     15.47%     72.29% # Class of committed instruction
system.cpu0.commit.op_class_0::IntDiv               0      0.00%     72.29% # Class of committed instruction
[...]
system.cpu3.dcache.ReadReq_avg_mshr_miss_latency::total 20172.900709                       # average ReadReq mshr miss latency
system.cpu3.dcache.WriteReq_avg_mshr_miss_latency::cpu3.data 19933.333333                       # average WriteReq mshr miss latency
system.cpu3.dcache.WriteReq_avg_mshr_miss_latency::total 19933.333333                       # average WriteReq mshr miss latency
system.cpu3.dcache.SoftPFReq_avg_mshr_miss_latency::cpu3.data 57166.666667                       # average SoftPFReq mshr miss latency
system.cpu3.dcache.SoftPFReq_avg_mshr_miss_latency::total 57166.666667                       # average SoftPFReq mshr miss latency
system.cpu3.dcache.LoadLockedReq_avg_mshr_miss_latency::cpu3.data  9500.333333                       # average LoadLockedReq mshr miss latency
system.cpu3.dcache.LoadLockedReq_avg_mshr_miss_latency::total  9500.333333                       # average LoadLockedReq mshr miss latency
system.cpu3.dcache.StoreCondReq_avg_mshr_miss_latency::cpu3.data  9333.333333                       # average StoreCondReq mshr miss latency
system.cpu3.dcache.StoreCondReq_avg_mshr_miss_latency::total  9333.333333                       # average StoreCondReq mshr miss latency
system.cpu3.dcache.demand_avg_mshr_miss_latency::cpu3.data 20130.871345                       # average overall mshr miss latency
system.cpu3.dcache.demand_avg_mshr_miss_latency::total 20130.871345                       # average overall mshr miss latency
system.cpu3.dcache.overall_avg_mshr_miss_latency::cpu3.data 20452.921739                       # average overall mshr miss latency
system.cpu3.dcache.overall_avg_mshr_miss_latency::total 20452.921739                       # average overall mshr miss latency
system.cpu3.dcache.no_allocate_misses               0                       # Number of misses that were no-allocate
system.cpu3.icache.tags.replacements                0                       # number of replacements
system.cpu3.icache.tags.tagsinuse           18.119903                       # Cycle average of tags in use
system.cpu3.icache.tags.total_refs              34465                       # Total number of references to valid blocks.
system.cpu3.icache.tags.sampled_refs               50                       # Sample count of references to valid blocks.
system.cpu3.icache.tags.avg_refs           689.300000                       # Average number of references to valid blocks.
system.cpu3.icache.tags.warmup_cycle                0                       # Cycle when the warmup percentage was hit.
system.cpu3.icache.tags.occ_blocks::cpu3.inst    18.119903                       # Average occupied blocks per requestor
system.cpu3.icache.tags.occ_percent::cpu3.inst     0.035390                       # Average percentage of cache occupancy
system.cpu3.icache.tags.occ_percent::total     0.035390                       # Average percentage of cache occupancy
system.cpu3.icache.tags.occ_task_id_blocks::1024           50                       # Occupied blocks per task id
system.cpu3.icache.tags.age_task_id_blocks_1024::0            8                       # Occupied blocks per task id
system.cpu3.icache.tags.age_task_id_blocks_1024::1           42                       # Occupied blocks per task id
system.cpu3.icache.tags.occ_task_id_percent::1024     0.097656                       # Percentage of cache occupancy per task id
system.cpu3.icache.tags.tag_accesses            69118                       # Number of tag accesses
system.cpu3.icache.tags.data_accesses           69118                       # Number of data accesses
system.cpu3.icache.ReadReq_hits::cpu3.inst        34465                       # number of ReadReq hits
system.cpu3.icache.ReadReq_hits::total          34465                       # number of ReadReq hits
system.cpu3.icache.demand_hits::cpu3.inst        34465                       # number of demand (read+write) hits
system.cpu3.icache.demand_hits::total           34465                       # number of demand (read+write) hits
system.cpu3.icache.overall_hits::cpu3.inst        34465                       # number of overall hits
system.cpu3.icache.overall_hits::total          34465                       # number of overall hits
system.cpu3.icache.ReadReq_misses::cpu3.inst           69                       # number of ReadReq misses
system.cpu3.icache.ReadReq_misses::total           69                       # number of ReadReq misses
system.cpu3.icache.demand_misses::cpu3.inst           69                       # number of demand (read+write) misses
system.cpu3.icache.demand_misses::total            69                       # number of demand (read+write) misses
system.cpu3.icache.overall_misses::cpu3.inst           69                       # number of overall misses
system.cpu3.icache.overall_misses::total           69                       # number of overall misses
system.cpu3.icache.ReadReq_miss_latency::cpu3.inst      4586750                       # number of ReadReq miss cycles
system.cpu3.icache.ReadReq_miss_latency::total      4586750                       # number of ReadReq miss cycles
system.cpu3.icache.demand_miss_latency::cpu3.inst      4586750                       # number of demand (read+write) miss cycles
system.cpu3.icache.demand_miss_latency::total      4586750                       # number of demand (read+write) miss cycles
system.cpu3.icache.overall_miss_latency::cpu3.inst      4586750                       # number of overall miss cycles
system.cpu3.icache.overall_miss_latency::total      4586750                       # number of overall miss cycles
system.cpu3.icache.ReadReq_accesses::cpu3.inst        34534                       # number of ReadReq accesses(hits+misses)
system.cpu3.icache.ReadReq_accesses::total        34534                       # number of ReadReq accesses(hits+misses)
system.cpu3.icache.demand_accesses::cpu3.inst        34534                       # number of demand (read+write) accesses
system.cpu3.icache.demand_accesses::total        34534                       # number of demand (read+write) accesses
system.cpu3.icache.overall_accesses::cpu3.inst        34534                       # number of overall (read+write) accesses
system.cpu3.icache.overall_accesses::total        34534                       # number of overall (read+write) accesses
system.cpu3.icache.ReadReq_miss_rate::cpu3.inst     0.001998                       # miss rate for ReadReq accesses
system.cpu3.icache.ReadReq_miss_rate::total     0.001998                       # miss rate for ReadReq accesses
system.cpu3.icache.demand_miss_rate::cpu3.inst     0.001998                       # miss rate for demand accesses
system.cpu3.icache.demand_miss_rate::total     0.001998                       # miss rate for demand accesses
system.cpu3.icache.overall_miss_rate::cpu3.inst     0.001998                       # miss rate for overall accesses
system.cpu3.icache.overall_miss_rate::total     0.001998                       # miss rate for overall accesses
system.cpu3.icache.ReadReq_avg_miss_latency::cpu3.inst 66474.637681                       # average ReadReq miss latency
system.cpu3.icache.ReadReq_avg_miss_latency::total 66474.637681                       # average ReadReq miss latency
system.cpu3.icache.demand_avg_miss_latency::cpu3.inst 66474.637681                       # average overall miss latency
system.cpu3.icache.demand_avg_miss_latency::total 66474.637681                       # average overall miss latency
system.cpu3.icache.overall_avg_miss_latency::cpu3.inst 66474.637681                       # average overall miss latency
system.cpu3.icache.overall_avg_miss_latency::total 66474.637681                       # average overall miss latency
system.cpu3.icache.blocked_cycles::no_mshrs           69                       # number of cycles access was blocked
system.cpu3.icache.blocked_cycles::no_targets            0                       # number of cycles access was blocked
system.cpu3.icache.blocked::no_mshrs                1                       # number of cycles access was blocked
system.cpu3.icache.blocked::no_targets              0                       # number of cycles access was blocked
system.cpu3.icache.avg_blocked_cycles::no_mshrs           69                       # average number of cycles each access was blocked
system.cpu3.icache.avg_blocked_cycles::no_targets          nan                       # average number of cycles each access was blocked
system.cpu3.icache.fast_writes                      0                       # number of fast writes performed
system.cpu3.icache.cache_copies                     0                       # number of cache copies performed
system.cpu3.icache.ReadReq_mshr_hits::cpu3.inst           19                       # number of ReadReq MSHR hits
system.cpu3.icache.ReadReq_mshr_hits::total           19                       # number of ReadReq MSHR hits
system.cpu3.icache.demand_mshr_hits::cpu3.inst           19                       # number of demand (read+write) MSHR hits
system.cpu3.icache.demand_mshr_hits::total           19                       # number of demand (read+write) MSHR hits
system.cpu3.icache.overall_mshr_hits::cpu3.inst           19                       # number of overall MSHR hits
system.cpu3.icache.overall_mshr_hits::total           19                       # number of overall MSHR hits
system.cpu3.icache.ReadReq_mshr_misses::cpu3.inst           50                       # number of ReadReq MSHR misses
system.cpu3.icache.ReadReq_mshr_misses::total           50                       # number of ReadReq MSHR misses
system.cpu3.icache.demand_mshr_misses::cpu3.inst           50                       # number of demand (read+write) MSHR misses
system.cpu3.icache.demand_mshr_misses::total           50                       # number of demand (read+write) MSHR misses
system.cpu3.icache.overall_mshr_misses::cpu3.inst           50                       # number of overall MSHR misses
system.cpu3.icache.overall_mshr_misses::total           50                       # number of overall MSHR misses
system.cpu3.icache.ReadReq_mshr_miss_latency::cpu3.inst      3573750                       # number of ReadReq MSHR miss cycles
system.cpu3.icache.ReadReq_mshr_miss_latency::total      3573750                       # number of ReadReq MSHR miss cycles
system.cpu3.icache.demand_mshr_miss_latency::cpu3.inst      3573750                       # number of demand (read+write) MSHR miss cycles
system.cpu3.icache.demand_mshr_miss_latency::total      3573750                       # number of demand (read+write) MSHR miss cycles
system.cpu3.icache.overall_mshr_miss_latency::cpu3.inst      3573750                       # number of overall MSHR miss cycles
system.cpu3.icache.overall_mshr_miss_latency::total      3573750                       # number of overall MSHR miss cycles
system.cpu3.icache.ReadReq_mshr_miss_rate::cpu3.inst     0.001448                       # mshr miss rate for ReadReq accesses
system.cpu3.icache.ReadReq_mshr_miss_rate::total     0.001448                       # mshr miss rate for ReadReq accesses
system.cpu3.icache.demand_mshr_miss_rate::cpu3.inst     0.001448                       # mshr miss rate for demand accesses
system.cpu3.icache.demand_mshr_miss_rate::total     0.001448                       # mshr miss rate for demand accesses
system.cpu3.icache.overall_mshr_miss_rate::cpu3.inst     0.001448                       # mshr miss rate for overall accesses
system.cpu3.icache.overall_mshr_miss_rate::total     0.001448                       # mshr miss rate for overall accesses
system.cpu3.icache.ReadReq_avg_mshr_miss_latency::cpu3.inst        71475                       # average ReadReq mshr miss latency
system.cpu3.icache.ReadReq_avg_mshr_miss_latency::total        71475                       # average ReadReq mshr miss latency
system.cpu3.icache.demand_avg_mshr_miss_latency::cpu3.inst        71475                       # average overall mshr miss latency
system.cpu3.icache.demand_avg_mshr_miss_latency::total        71475                       # average overall mshr miss latency
system.cpu3.icache.overall_avg_mshr_miss_latency::cpu3.inst        71475                       # average overall mshr miss latency
system.cpu3.icache.overall_avg_mshr_miss_latency::total        71475                       # average overall mshr miss latency
system.cpu3.icache.no_allocate_misses               0                       # Number of misses that were no-allocate
system.membus.trans_dist::ReadReq                1820                       # Transaction distribution
system.membus.trans_dist::ReadResp               1819                       # Transaction distribution
system.membus.trans_dist::Writeback                92                       # Transaction distribution
system.membus.trans_dist::UpgradeReq               11                       # Transaction distribution
system.membus.trans_dist::SCUpgradeReq             10                       # Transaction distribution
system.membus.trans_dist::UpgradeResp              21                       # Transaction distribution
system.membus.trans_dist::ReadExReq               930                       # Transaction distribution
system.membus.trans_dist::ReadExResp              930                       # Transaction distribution
system.membus.pkt_count_system.cpu0.icache.mem_side::system.mem_ctrls.port         1213                       # Packet count per connected master and slave (bytes)
system.membus.pkt_count_system.cpu0.dcache.mem_side::system.mem_ctrls.port         2005                       # Packet count per connected master and slave (bytes)
system.membus.pkt_count_system.cpu1.icache.mem_side::system.mem_ctrls.port           98                       # Packet count per connected master and slave (bytes)
system.membus.pkt_count_system.cpu1.dcache.mem_side::system.mem_ctrls.port          375                       # Packet count per connected master and slave (bytes)
system.membus.pkt_count_system.cpu2.icache.mem_side::system.mem_ctrls.port          108                       # Packet count per connected master and slave (bytes)
system.membus.pkt_count_system.cpu2.dcache.mem_side::system.mem_ctrls.port          391                       # Packet count per connected master and slave (bytes)
system.membus.pkt_count_system.cpu3.icache.mem_side::system.mem_ctrls.port          100                       # Packet count per connected master and slave (bytes)
system.membus.pkt_count_system.cpu3.dcache.mem_side::system.mem_ctrls.port          382                       # Packet count per connected master and slave (bytes)
system.membus.pkt_count::total                   4672                       # Packet count per connected master and slave (bytes)
system.membus.pkt_size_system.cpu0.icache.mem_side::system.mem_ctrls.port        38784                       # Cumulative packet size per connected master and slave (bytes)
system.membus.pkt_size_system.cpu0.dcache.mem_side::system.mem_ctrls.port        66560                       # Cumulative packet size per connected master and slave (bytes)
system.membus.pkt_size_system.cpu1.icache.mem_side::system.mem_ctrls.port         3136                       # Cumulative packet size per connected master and slave (bytes)
system.membus.pkt_size_system.cpu1.dcache.mem_side::system.mem_ctrls.port         1536                       # Cumulative packet size per connected master and slave (bytes)
system.membus.pkt_size_system.cpu2.icache.mem_side::system.mem_ctrls.port         3456                       # Cumulative packet size per connected master and slave (bytes)
system.membus.pkt_size_system.cpu2.dcache.mem_side::system.mem_ctrls.port         2560                       # Cumulative packet size per connected master and slave (bytes)
system.membus.pkt_size_system.cpu3.icache.mem_side::system.mem_ctrls.port         3200                       # Cumulative packet size per connected master and slave (bytes)
system.membus.pkt_size_system.cpu3.dcache.mem_side::system.mem_ctrls.port         1984                       # Cumulative packet size per connected master and slave (bytes)
system.membus.pkt_size::total                  121216                       # Cumulative packet size per connected master and slave (bytes)
system.membus.snoops                              961                       # Total snoops (count)
system.membus.snoop_fanout::samples              2863                       # Request fanout histogram
system.membus.snoop_fanout::mean                    7                       # Request fanout histogram
system.membus.snoop_fanout::stdev                   0                       # Request fanout histogram
system.membus.snoop_fanout::underflows              0      0.00%      0.00% # Request fanout histogram
system.membus.snoop_fanout::0                       0      0.00%      0.00% # Request fanout histogram
system.membus.snoop_fanout::1                       0      0.00%      0.00% # Request fanout histogram
system.membus.snoop_fanout::2                       0      0.00%      0.00% # Request fanout histogram
system.membus.snoop_fanout::3                       0      0.00%      0.00% # Request fanout histogram
system.membus.snoop_fanout::4                       0      0.00%      0.00% # Request fanout histogram
system.membus.snoop_fanout::5                       0      0.00%      0.00% # Request fanout histogram
system.membus.snoop_fanout::6                       0      0.00%      0.00% # Request fanout histogram
system.membus.snoop_fanout::7                    2863    100.00%    100.00% # Request fanout histogram
system.membus.snoop_fanout::8                       0      0.00%    100.00% # Request fanout histogram
system.membus.snoop_fanout::overflows               0      0.00%    100.00% # Request fanout histogram
system.membus.snoop_fanout::min_value               7                       # Request fanout histogram
system.membus.snoop_fanout::max_value               7                       # Request fanout histogram
system.membus.snoop_fanout::total                2863                       # Request fanout histogram
system.membus.reqLayer0.occupancy             3883499                       # Layer occupancy (ticks)
system.membus.reqLayer0.utilization               4.1                       # Layer utilization (%)
system.membus.respLayer1.occupancy            3220250                       # Layer occupancy (ticks)
system.membus.respLayer1.utilization              3.4                       # Layer utilization (%)
system.membus.respLayer2.occupancy            5047994                       # Layer occupancy (ticks)
system.membus.respLayer2.utilization              5.4                       # Layer utilization (%)
system.membus.respLayer5.occupancy             261000                       # Layer occupancy (ticks)
system.membus.respLayer5.utilization              0.3                       # Layer utilization (%)
system.membus.respLayer6.occupancy            1794951                       # Layer occupancy (ticks)
system.membus.respLayer6.utilization              1.9                       # Layer utilization (%)
system.membus.respLayer9.occupancy             285750                       # Layer occupancy (ticks)
system.membus.respLayer9.utilization              0.3                       # Layer utilization (%)
system.membus.respLayer10.occupancy           1788460                       # Layer occupancy (ticks)
system.membus.respLayer10.utilization             1.9                       # Layer utilization (%)
system.membus.respLayer13.occupancy            268250                       # Layer occupancy (ticks)
system.membus.respLayer13.utilization             0.3                       # Layer utilization (%)
system.membus.respLayer14.occupancy           1752241                       # Layer occupancy (ticks)
system.membus.respLayer14.utilization             1.9                       # Layer utilization (%)

---------- End Simulation Statistics   ----------
