
---------- Begin Simulation Statistics ----------
sim_seconds                                  0.000072                       # Number of seconds simulated
sim_ticks                                    72161000                       # Number of ticks simulated
final_tick                                   72161000                       # Number of ticks from beginning of simulation (restored from checkpoints and never reset)
sim_freq                                 1000000000000                       # Frequency of simulated ticks
host_inst_rate                                 153033                       # Simulator instruction rate (inst/s)
host_op_rate                                   157714                       # Simulator op (including micro ops) rate (op/s)
host_tick_rate                                7855525                       # Simulator tick rate (ticks/s)
host_mem_usage                                 885000                       # Number of bytes of host memory used
host_seconds                                     9.19                       # Real time elapsed on the host
sim_insts                                     1405757                       # Number of instructions simulated
sim_ops                                       1448763                       # Number of ops (including micro ops) simulated
system.voltage_domain.voltage                       1                       # Voltage in Volts
system.clk_domain.clock                          1000                       # Clock period in ticks
system.mem_ctrls.bytes_read::cpu00.inst         38016                       # Number of bytes read from this memory
system.mem_ctrls.bytes_read::cpu00.data         50048                       # Number of bytes read from this memory
system.mem_ctrls.bytes_read::cpu01.inst          3264                       # Number of bytes read from this memory
system.mem_ctrls.bytes_read::cpu01.data          1024                       # Number of bytes read from this memory
system.mem_ctrls.bytes_read::cpu02.inst          3264                       # Number of bytes read from this memory
system.mem_ctrls.bytes_read::cpu02.data          1088                       # Number of bytes read from this memory
system.mem_ctrls.bytes_read::cpu03.inst          3264                       # Number of bytes read from this memory
system.mem_ctrls.bytes_read::cpu03.data          1024                       # Number of bytes read from this memory
system.mem_ctrls.bytes_read::cpu04.inst          3264                       # Number of bytes read from this memory
system.mem_ctrls.bytes_read::cpu04.data          1024                       # Number of bytes read from this memory
system.mem_ctrls.bytes_read::cpu05.inst          3264                       # Number of bytes read from this memory
system.mem_ctrls.bytes_read::cpu05.data          1024                       # Number of bytes read from this memory
system.mem_ctrls.bytes_read::cpu06.inst          3264                       # Number of bytes read from this memory
system.mem_ctrls.bytes_read::cpu06.data          1024                       # Number of bytes read from this memory
system.mem_ctrls.bytes_read::cpu07.inst          3264                       # Number of bytes read from this memory
system.mem_ctrls.bytes_read::cpu07.data          1024                       # Number of bytes read from this memory
system.mem_ctrls.bytes_read::cpu08.inst          3264                       # Number of bytes read from this memory
system.mem_ctrls.bytes_read::cpu08.data          1024                       # Number of bytes read from this memory
system.mem_ctrls.bytes_read::cpu09.inst          3264                       # Number of bytes read from this memory
system.mem_ctrls.bytes_read::cpu09.data          1024                       # Number of bytes read from this memory
system.mem_ctrls.bytes_read::cpu10.inst          3264                       # Number of bytes read from this memory
system.mem_ctrls.bytes_read::cpu10.data          1024                       # Number of bytes read from this memory
system.mem_ctrls.bytes_read::cpu11.inst          3264                       # Number of bytes read from this memory
system.mem_ctrls.bytes_read::cpu11.data          1024                       # Number of bytes read from this memory
system.mem_ctrls.bytes_read::cpu12.inst          3264                       # Number of bytes read from this memory
system.mem_ctrls.bytes_read::cpu12.data          1152                       # Number of bytes read from this memory
system.mem_ctrls.bytes_read::cpu13.inst          3264                       # Number of bytes read from this memory
system.mem_ctrls.bytes_read::cpu13.data          1088                       # Number of bytes read from this memory
system.mem_ctrls.bytes_read::cpu14.inst          3328                       # Number of bytes read from this memory
system.mem_ctrls.bytes_read::cpu14.data          1088                       # Number of bytes read from this memory
system.mem_ctrls.bytes_read::cpu15.inst          3264                       # Number of bytes read from this memory
system.mem_ctrls.bytes_read::cpu15.data          1088                       # Number of bytes read from this memory
system.mem_ctrls.bytes_read::cpu16.inst          3264                       # Number of bytes read from this memory
system.mem_ctrls.bytes_read::cpu16.data          1024                       # Number of bytes read from this memory
system.mem_ctrls.bytes_read::cpu17.inst          3200                       # Number of bytes read from this memory
system.mem_ctrls.bytes_read::cpu17.data          1024                       # Number of bytes read from this memory
system.mem_ctrls.bytes_read::cpu18.inst          3264                       # Number of bytes read from this memory
system.mem_ctrls.bytes_read::cpu18.data          1088                       # Number of bytes read from this memory
system.mem_ctrls.bytes_read::cpu19.inst          3200                       # Number of bytes read from this memory
system.mem_ctrls.bytes_read::cpu19.data          1024                       # Number of bytes read from this memory
system.mem_ctrls.bytes_read::cpu20.inst          3264                       # Number of bytes read from this memory
system.mem_ctrls.bytes_read::cpu20.data          1088                       # Number of bytes read from this memory
system.mem_ctrls.bytes_read::cpu21.inst          3264                       # Number of bytes read from this memory
system.mem_ctrls.bytes_read::cpu21.data          1088                       # Number of bytes read from this memory
system.mem_ctrls.bytes_read::cpu22.inst          3392                       # Number of bytes read from this memory
system.mem_ctrls.bytes_read::cpu22.data          1088                       # Number of bytes read from this memory
system.mem_ctrls.bytes_read::cpu23.inst          3328                       # Number of bytes read from this memory
system.mem_ctrls.bytes_read::cpu23.data          1024                       # Number of bytes read from this memory
system.mem_ctrls.bytes_read::cpu24.inst          3328                       # Number of bytes read from this memory
system.mem_ctrls.bytes_read::cpu24.data          1024                       # Number of bytes read from this memory
system.mem_ctrls.bytes_read::cpu25.inst          3392                       # Number of bytes read from this memory
system.mem_ctrls.bytes_read::cpu25.data          1088                       # Number of bytes read from this memory
system.mem_ctrls.bytes_read::cpu26.inst          3520                       # Number of bytes read from this memory
system.mem_ctrls.bytes_read::cpu26.data          1088                       # Number of bytes read from this memory
system.mem_ctrls.bytes_read::cpu27.inst          3520                       # Number of bytes read from this memory
system.mem_ctrls.bytes_read::cpu27.data          1024                       # Number of bytes read from this memory
system.mem_ctrls.bytes_read::cpu28.inst          3456                       # Number of bytes read from this memory
system.mem_ctrls.bytes_read::cpu28.data          1088                       # Number of bytes read from this memory
system.mem_ctrls.bytes_read::cpu29.inst          3456                       # Number of bytes read from this memory
system.mem_ctrls.bytes_read::cpu29.data          1088                       # Number of bytes read from this memory
system.mem_ctrls.bytes_read::cpu30.inst          3264                       # Number of bytes read from this memory
system.mem_ctrls.bytes_read::cpu30.data          1024                       # Number of bytes read from this memory
system.mem_ctrls.bytes_read::cpu31.inst          3392                       # Number of bytes read from this memory
system.mem_ctrls.bytes_read::cpu31.data          1088                       # Number of bytes read from this memory
system.mem_ctrls.bytes_read::total             223296                       # Number of bytes read from this memory
system.mem_ctrls.bytes_inst_read::cpu00.inst        38016                       # Number of instructions bytes read from this memory
system.mem_ctrls.bytes_inst_read::cpu01.inst         3264                       # Number of instructions bytes read from this memory
system.mem_ctrls.bytes_inst_read::cpu02.inst         3264                       # Number of instructions bytes read from this memory
system.mem_ctrls.bytes_inst_read::cpu03.inst         3264                       # Number of instructions bytes read from this memory
system.mem_ctrls.bytes_inst_read::cpu04.inst         3264                       # Number of instructions bytes read from this memory
system.mem_ctrls.bytes_inst_read::cpu05.inst         3264                       # Number of instructions bytes read from this memory
system.mem_ctrls.bytes_inst_read::cpu06.inst         3264                       # Number of instructions bytes read from this memory
system.mem_ctrls.bytes_inst_read::cpu07.inst         3264                       # Number of instructions bytes read from this memory
system.mem_ctrls.bytes_inst_read::cpu08.inst         3264                       # Number of instructions bytes read from this memory
system.mem_ctrls.bytes_inst_read::cpu09.inst         3264                       # Number of instructions bytes read from this memory
system.mem_ctrls.bytes_inst_read::cpu10.inst         3264                       # Number of instructions bytes read from this memory
system.mem_ctrls.bytes_inst_read::cpu11.inst         3264                       # Number of instructions bytes read from this memory
system.mem_ctrls.bytes_inst_read::cpu12.inst         3264                       # Number of instructions bytes read from this memory
system.mem_ctrls.bytes_inst_read::cpu13.inst         3264                       # Number of instructions bytes read from this memory
system.mem_ctrls.bytes_inst_read::cpu14.inst         3328                       # Number of instructions bytes read from this memory
system.mem_ctrls.bytes_inst_read::cpu15.inst         3264                       # Number of instructions bytes read from this memory
system.mem_ctrls.bytes_inst_read::cpu16.inst         3264                       # Number of instructions bytes read from this memory
system.mem_ctrls.bytes_inst_read::cpu17.inst         3200                       # Number of instructions bytes read from this memory
system.mem_ctrls.bytes_inst_read::cpu18.inst         3264                       # Number of instructions bytes read from this memory
system.mem_ctrls.bytes_inst_read::cpu19.inst         3200                       # Number of instructions bytes read from this memory
system.mem_ctrls.bytes_inst_read::cpu20.inst         3264                       # Number of instructions bytes read from this memory
system.mem_ctrls.bytes_inst_read::cpu21.inst         3264                       # Number of instructions bytes read from this memory
system.mem_ctrls.bytes_inst_read::cpu22.inst         3392                       # Number of instructions bytes read from this memory
system.mem_ctrls.bytes_inst_read::cpu23.inst         3328                       # Number of instructions bytes read from this memory
system.mem_ctrls.bytes_inst_read::cpu24.inst         3328                       # Number of instructions bytes read from this memory
system.mem_ctrls.bytes_inst_read::cpu25.inst         3392                       # Number of instructions bytes read from this memory
system.mem_ctrls.bytes_inst_read::cpu26.inst         3520                       # Number of instructions bytes read from this memory
system.mem_ctrls.bytes_inst_read::cpu27.inst         3520                       # Number of instructions bytes read from this memory
system.mem_ctrls.bytes_inst_read::cpu28.inst         3456                       # Number of instructions bytes read from this memory
system.mem_ctrls.bytes_inst_read::cpu29.inst         3456                       # Number of instructions bytes read from this memory
system.mem_ctrls.bytes_inst_read::cpu30.inst         3264                       # Number of instructions bytes read from this memory
system.mem_ctrls.bytes_inst_read::cpu31.inst         3392                       # Number of instructions bytes read from this memory
system.mem_ctrls.bytes_inst_read::total        140544                       # Number of instructions bytes read from this memory
system.mem_ctrls.bytes_written::writebacks         2880                       # Number of bytes written to this memory
system.mem_ctrls.bytes_written::total            2880                       # Number of bytes written to this memory
system.mem_ctrls.num_reads::cpu00.inst            594                       # Number of read requests responded to by this memory
system.mem_ctrls.num_reads::cpu00.data            782                       # Number of read requests responded to by this memory
system.mem_ctrls.num_reads::cpu01.inst             51                       # Number of read requests responded to by this memory
system.mem_ctrls.num_reads::cpu01.data             16                       # Number of read requests responded to by this memory
system.mem_ctrls.num_reads::cpu02.inst             51                       # Number of read requests responded to by this memory
system.mem_ctrls.num_reads::cpu02.data             17                       # Number of read requests responded to by this memory
system.mem_ctrls.num_reads::cpu03.inst             51                       # Number of read requests responded to by this memory
system.mem_ctrls.num_reads::cpu03.data             16                       # Number of read requests responded to by this memory
system.mem_ctrls.num_reads::cpu04.inst             51                       # Number of read requests responded to by this memory
system.mem_ctrls.num_reads::cpu04.data             16                       # Number of read requests responded to by this memory
system.mem_ctrls.num_reads::cpu05.inst             51                       # Number of read requests responded to by this memory
system.mem_ctrls.num_reads::cpu05.data             16                       # Number of read requests responded to by this memory
system.mem_ctrls.num_reads::cpu06.inst             51                       # Number of read requests responded to by this memory
system.mem_ctrls.num_reads::cpu06.data             16                       # Number of read requests responded to by this memory
system.mem_ctrls.num_reads::cpu07.inst             51                       # Number of read requests responded to by this memory
system.mem_ctrls.num_reads::cpu07.data             16                       # Number of read requests responded to by this memory
system.mem_ctrls.num_reads::cpu08.inst             51                       # Number of read requests responded to by this memory
system.mem_ctrls.num_reads::cpu08.data             16                       # Number of read requests responded to by this memory
system.mem_ctrls.num_reads::cpu09.inst             51                       # Number of read requests responded to by this memory
system.mem_ctrls.num_reads::cpu09.data             16                       # Number of read requests responded to by this memory
system.mem_ctrls.num_reads::cpu10.inst             51                       # Number of read requests responded to by this memory
system.mem_ctrls.num_reads::cpu10.data             16                       # Number of read requests responded to by this memory
system.mem_ctrls.num_reads::cpu11.inst             51                       # Number of read requests responded to by this memory
system.mem_ctrls.num_reads::cpu11.data             16                       # Number of read requests responded to by this memory
system.mem_ctrls.num_reads::cpu12.inst             51                       # Number of read requests responded to by this memory
system.mem_ctrls.num_reads::cpu12.data             18                       # Number of read requests responded to by this memory
system.mem_ctrls.num_reads::cpu13.inst             51                       # Number of read requests responded to by this memory
system.mem_ctrls.num_reads::cpu13.data             17                       # Number of read requests responded to by this memory
system.mem_ctrls.num_reads::cpu14.inst             52                       # Number of read requests responded to by this memory
system.mem_ctrls.num_reads::cpu14.data             17                       # Number of read requests responded to by this memory
system.mem_ctrls.num_reads::cpu15.inst             51                       # Number of read requests responded to by this memory
system.mem_ctrls.num_reads::cpu15.data             17                       # Number of read requests responded to by this memory
system.mem_ctrls.num_reads::cpu16.inst             51                       # Number of read requests responded to by this memory
system.mem_ctrls.num_reads::cpu16.data             16                       # Number of read requests responded to by this memory
system.mem_ctrls.num_reads::cpu17.inst             50                       # Number of read requests responded to by this memory
system.mem_ctrls.num_reads::cpu17.data             16                       # Number of read requests responded to by this memory
system.mem_ctrls.num_reads::cpu18.inst             51                       # Number of read requests responded to by this memory
system.mem_ctrls.num_reads::cpu18.data             17                       # Number of read requests responded to by this memory
system.mem_ctrls.num_reads::cpu19.inst             50                       # Number of read requests responded to by this memory
system.mem_ctrls.num_reads::cpu19.data             16                       # Number of read requests responded to by this memory
system.mem_ctrls.num_reads::cpu20.inst             51                       # Number of read requests responded to by this memory
system.mem_ctrls.num_reads::cpu20.data             17                       # Number of read requests responded to by this memory
system.mem_ctrls.num_reads::cpu21.inst             51                       # Number of read requests responded to by this memory
system.mem_ctrls.num_reads::cpu21.data             17                       # Number of read requests responded to by this memory
system.mem_ctrls.num_reads::cpu22.inst             53                       # Number of read requests responded to by this memory
system.mem_ctrls.num_reads::cpu22.data             17                       # Number of read requests responded to by this memory
system.mem_ctrls.num_reads::cpu23.inst             52                       # Number of read requests responded to by this memory
system.mem_ctrls.num_reads::cpu23.data             16                       # Number of read requests responded to by this memory
system.mem_ctrls.num_reads::cpu24.inst             52                       # Number of read requests responded to by this memory
system.mem_ctrls.num_reads::cpu24.data             16                       # Number of read requests responded to by this memory
system.mem_ctrls.num_reads::cpu25.inst             53                       # Number of read requests responded to by this memory
system.mem_ctrls.num_reads::cpu25.data             17                       # Number of read requests responded to by this memory
system.mem_ctrls.num_reads::cpu26.inst             55                       # Number of read requests responded to by this memory
system.mem_ctrls.num_reads::cpu26.data             17                       # Number of read requests responded to by this memory
system.mem_ctrls.num_reads::cpu27.inst             55                       # Number of read requests responded to by this memory
system.mem_ctrls.num_reads::cpu27.data             16                       # Number of read requests responded to by this memory
system.mem_ctrls.num_reads::cpu28.inst             54                       # Number of read requests responded to by this memory
system.mem_ctrls.num_reads::cpu28.data             17                       # Number of read requests responded to by this memory
system.mem_ctrls.num_reads::cpu29.inst             54                       # Number of read requests responded to by this memory
system.mem_ctrls.num_reads::cpu29.data             17                       # Number of read requests responded to by this memory
system.mem_ctrls.num_reads::cpu30.inst             51                       # Number of read requests responded to by this memory
system.mem_ctrls.num_reads::cpu30.data             16                       # Number of read requests responded to by this memory
system.mem_ctrls.num_reads::cpu31.inst             53                       # Number of read requests responded to by this memory
system.mem_ctrls.num_reads::cpu31.data             17                       # Number of read requests responded to by this memory
system.mem_ctrls.num_reads::total                3489                       # Number of read requests responded to by this memory
system.mem_ctrls.num_writes::writebacks            45                       # Number of write requests responded to by this memory
system.mem_ctrls.num_writes::total                 45                       # Number of write requests responded to by this memory
system.mem_ctrls.bw_read::cpu00.inst        526821968                       # Total read bandwidth from this memory (bytes/s)
system.mem_ctrls.bw_read::cpu00.data        693560233                       # Total read bandwidth from this memory (bytes/s)
system.mem_ctrls.bw_read::cpu01.inst         45232189                       # Total read bandwidth from this memory (bytes/s)
system.mem_ctrls.bw_read::cpu01.data         14190491                       # Total read bandwidth from this memory (bytes/s)
system.mem_ctrls.bw_read::cpu02.inst         45232189                       # Total read bandwidth from this memory (bytes/s)
system.mem_ctrls.bw_read::cpu02.data         15077396                       # Total read bandwidth from this memory (bytes/s)
system.mem_ctrls.bw_read::cpu03.inst         45232189                       # Total read bandwidth from this memory (bytes/s)
system.mem_ctrls.bw_read::cpu03.data         14190491                       # Total read bandwidth from this memory (bytes/s)
system.mem_ctrls.bw_read::cpu04.inst         45232189                       # Total read bandwidth from this memory (bytes/s)
system.mem_ctrls.bw_read::cpu04.data         14190491                       # Total read bandwidth from this memory (bytes/s)
system.mem_ctrls.bw_read::cpu05.inst         45232189                       # Total read bandwidth from this memory (bytes/s)
system.mem_ctrls.bw_read::cpu05.data         14190491                       # Total read bandwidth from this memory (bytes/s)
system.mem_ctrls.bw_read::cpu06.inst         45232189                       # Total read bandwidth from this memory (bytes/s)
system.mem_ctrls.bw_read::cpu06.data         14190491                       # Total read bandwidth from this memory (bytes/s)
system.mem_ctrls.bw_read::cpu07.inst         45232189                       # Total read bandwidth from this memory (bytes/s)
system.mem_ctrls.bw_read::cpu07.data         14190491                       # Total read bandwidth from this memory (bytes/s)
system.mem_ctrls.bw_read::cpu08.inst         45232189                       # Total read bandwidth from this memory (bytes/s)
system.mem_ctrls.bw_read::cpu08.data         14190491                       # Total read bandwidth from this memory (bytes/s)
system.mem_ctrls.bw_read::cpu09.inst         45232189                       # Total read bandwidth from this memory (bytes/s)
system.mem_ctrls.bw_read::cpu09.data         14190491                       # Total read bandwidth from this memory (bytes/s)
system.mem_ctrls.bw_read::cpu10.inst         45232189                       # Total read bandwidth from this memory (bytes/s)
system.mem_ctrls.bw_read::cpu10.data         14190491                       # Total read bandwidth from this memory (bytes/s)
system.mem_ctrls.bw_read::cpu11.inst         45232189                       # Total read bandwidth from this memory (bytes/s)
system.mem_ctrls.bw_read::cpu11.data         14190491                       # Total read bandwidth from this memory (bytes/s)
system.mem_ctrls.bw_read::cpu12.inst         45232189                       # Total read bandwidth from this memory (bytes/s)
system.mem_ctrls.bw_read::cpu12.data         15964302                       # Total read bandwidth from this memory (bytes/s)
system.mem_ctrls.bw_read::cpu13.inst         45232189                       # Total read bandwidth from this memory (bytes/s)
system.mem_ctrls.bw_read::cpu13.data         15077396                       # Total read bandwidth from this memory (bytes/s)
system.mem_ctrls.bw_read::cpu14.inst         46119095                       # Total read bandwidth from this memory (bytes/s)
system.mem_ctrls.bw_read::cpu14.data         15077396                       # Total read bandwidth from this memory (bytes/s)
system.mem_ctrls.bw_read::cpu15.inst         45232189                       # Total read bandwidth from this memory (bytes/s)
system.mem_ctrls.bw_read::cpu15.data         15077396                       # Total read bandwidth from this memory (bytes/s)
system.mem_ctrls.bw_read::cpu16.inst         45232189                       # Total read bandwidth from this memory (bytes/s)
system.mem_ctrls.bw_read::cpu16.data         14190491                       # Total read bandwidth from this memory (bytes/s)
system.mem_ctrls.bw_read::cpu17.inst         44345283                       # Total read bandwidth from this memory (bytes/s)
system.mem_ctrls.bw_read::cpu17.data         14190491                       # Total read bandwidth from this memory (bytes/s)
system.mem_ctrls.bw_read::cpu18.inst         45232189                       # Total read bandwidth from this memory (bytes/s)
system.mem_ctrls.bw_read::cpu18.data         15077396                       # Total read bandwidth from this memory (bytes/s)
system.mem_ctrls.bw_read::cpu19.inst         44345283                       # Total read bandwidth from this memory (bytes/s)
system.mem_ctrls.bw_read::cpu19.data         14190491                       # Total read bandwidth from this memory (bytes/s)
system.mem_ctrls.bw_read::cpu20.inst         45232189                       # Total read bandwidth from this memory (bytes/s)
system.mem_ctrls.bw_read::cpu20.data         15077396                       # Total read bandwidth from this memory (bytes/s)
system.mem_ctrls.bw_read::cpu21.inst         45232189                       # Total read bandwidth from this memory (bytes/s)
system.mem_ctrls.bw_read::cpu21.data         15077396                       # Total read bandwidth from this memory (bytes/s)
system.mem_ctrls.bw_read::cpu22.inst         47006000                       # Total read bandwidth from this memory (bytes/s)
system.mem_ctrls.bw_read::cpu22.data         15077396                       # Total read bandwidth from this memory (bytes/s)
system.mem_ctrls.bw_read::cpu23.inst         46119095                       # Total read bandwidth from this memory (bytes/s)
system.mem_ctrls.bw_read::cpu23.data         14190491                       # Total read bandwidth from this memory (bytes/s)
system.mem_ctrls.bw_read::cpu24.inst         46119095                       # Total read bandwidth from this memory (bytes/s)
system.mem_ctrls.bw_read::cpu24.data         14190491                       # Total read bandwidth from this memory (bytes/s)
system.mem_ctrls.bw_read::cpu25.inst         47006000                       # Total read bandwidth from this memory (bytes/s)
system.mem_ctrls.bw_read::cpu25.data         15077396                       # Total read bandwidth from this memory (bytes/s)
system.mem_ctrls.bw_read::cpu26.inst         48779812                       # Total read bandwidth from this memory (bytes/s)
system.mem_ctrls.bw_read::cpu26.data         15077396                       # Total read bandwidth from this memory (bytes/s)
system.mem_ctrls.bw_read::cpu27.inst         48779812                       # Total read bandwidth from this memory (bytes/s)
system.mem_ctrls.bw_read::cpu27.data         14190491                       # Total read bandwidth from this memory (bytes/s)
system.mem_ctrls.bw_read::cpu28.inst         47892906                       # Total read bandwidth from this memory (bytes/s)
system.mem_ctrls.bw_read::cpu28.data         15077396                       # Total read bandwidth from this memory (bytes/s)
system.mem_ctrls.bw_read::cpu29.inst         47892906                       # Total read bandwidth from this memory (bytes/s)
system.mem_ctrls.bw_read::cpu29.data         15077396                       # Total read bandwidth from this memory (bytes/s)
system.mem_ctrls.bw_read::cpu30.inst         45232189                       # Total read bandwidth from this memory (bytes/s)
system.mem_ctrls.bw_read::cpu30.data         14190491                       # Total read bandwidth from this memory (bytes/s)
system.mem_ctrls.bw_read::cpu31.inst         47006000                       # Total read bandwidth from this memory (bytes/s)
system.mem_ctrls.bw_read::cpu31.data         15077396                       # Total read bandwidth from this memory (bytes/s)
system.mem_ctrls.bw_read::total            3094413880                       # Total read bandwidth from this memory (bytes/s)
system.mem_ctrls.bw_inst_read::cpu00.inst    526821968                       # Instruction read bandwidth from this memory (bytes/s)
system.mem_ctrls.bw_inst_read::cpu01.inst     45232189                       # Instruction read bandwidth from this memory (bytes/s)
system.mem_ctrls.bw_inst_read::cpu02.inst     45232189                       # Instruction read bandwidth from this memory (bytes/s)
system.mem_ctrls.bw_inst_read::cpu03.inst     45232189                       # Instruction read bandwidth from this memory (bytes/s)
system.mem_ctrls.bw_inst_read::cpu04.inst     45232189                       # Instruction read bandwidth from this memory (bytes/s)
system.mem_ctrls.bw_inst_read::cpu05.inst     45232189                       # Instruction read bandwidth from this memory (bytes/s)
system.mem_ctrls.bw_inst_read::cpu06.inst     45232189                       # Instruction read bandwidth from this memory (bytes/s)
system.mem_ctrls.bw_inst_read::cpu07.inst     45232189                       # Instruction read bandwidth from this memory (bytes/s)
system.mem_ctrls.bw_inst_read::cpu08.inst     45232189                       # Instruction read bandwidth from this memory (bytes/s)
system.mem_ctrls.bw_inst_read::cpu09.inst     45232189                       # Instruction read bandwidth from this memory (bytes/s)
system.mem_ctrls.bw_inst_read::cpu10.inst     45232189                       # Instruction read bandwidth from this memory (bytes/s)
system.mem_ctrls.bw_inst_read::cpu11.inst     45232189                       # Instruction read bandwidth from this memory (bytes/s)
system.mem_ctrls.bw_inst_read::cpu12.inst     45232189                       # Instruction read bandwidth from this memory (bytes/s)
system.mem_ctrls.bw_inst_read::cpu13.inst     45232189                       # Instruction read bandwidth from this memory (bytes/s)
system.mem_ctrls.bw_inst_read::cpu14.inst     46119095                       # Instruction read bandwidth from this memory (bytes/s)
system.mem_ctrls.bw_inst_read::cpu15.inst     45232189                       # Instruction read bandwidth from this memory (bytes/s)
system.mem_ctrls.bw_inst_read::cpu16.inst     45232189                       # Instruction read bandwidth from this memory (bytes/s)
system.mem_ctrls.bw_inst_read::cpu17.inst     44345283                       # Instruction read bandwidth from this memory (bytes/s)
system.mem_ctrls.bw_inst_read::cpu18.inst     45232189                       # Instruction read bandwidth from this memory (bytes/s)
system.mem_ctrls.bw_inst_read::cpu19.inst     44345283                       # Instruction read bandwidth from this memory (bytes/s)
system.mem_ctrls.bw_inst_read::cpu20.inst     45232189                       # Instruction read bandwidth from this memory (bytes/s)
system.mem_ctrls.bw_inst_read::cpu21.inst     45232189                       # Instruction read bandwidth from this memory (bytes/s)
system.mem_ctrls.bw_inst_read::cpu22.inst     47006000                       # Instruction read bandwidth from this memory (bytes/s)
system.mem_ctrls.bw_inst_read::cpu23.inst     46119095                       # Instruction read bandwidth from this memory (bytes/s)
system.mem_ctrls.bw_inst_read::cpu24.inst     46119095                       # Instruction read bandwidth from this memory (bytes/s)
system.mem_ctrls.bw_inst_read::cpu25.inst     47006000                       # Instruction read bandwidth from this memory (bytes/s)
system.mem_ctrls.bw_inst_read::cpu26.inst     48779812                       # Instruction read bandwidth from this memory (bytes/s)
system.mem_ctrls.bw_inst_read::cpu27.inst     48779812                       # Instruction read bandwidth from this memory (bytes/s)
system.mem_ctrls.bw_inst_read::cpu28.inst     47892906                       # Instruction read bandwidth from this memory (bytes/s)
system.mem_ctrls.bw_inst_read::cpu29.inst     47892906                       # Instruction read bandwidth from this memory (bytes/s)
system.mem_ctrls.bw_inst_read::cpu30.inst     45232189                       # Instruction read bandwidth from this memory (bytes/s)
system.mem_ctrls.bw_inst_read::cpu31.inst     47006000                       # Instruction read bandwidth from this memory (bytes/s)
system.mem_ctrls.bw_inst_read::total       1947644850                       # Instruction read bandwidth from this memory (bytes/s)
system.mem_ctrls.bw_write::writebacks        39910755                       # Write bandwidth from this memory (bytes/s)
system.mem_ctrls.bw_write::total             39910755                       # Write bandwidth from this memory (bytes/s)
system.mem_ctrls.bw_total::writebacks        39910755                       # Total bandwidth to/from this memory (bytes/s)
system.mem_ctrls.bw_total::cpu00.inst       526821968                       # Total bandwidth to/from this memory (bytes/s)
system.mem_ctrls.bw_total::cpu00.data       693560233                       # Total bandwidth to/from this memory (bytes/s)
system.mem_ctrls.bw_total::cpu01.inst        45232189                       # Total bandwidth to/from this memory (bytes/s)
system.mem_ctrls.bw_total::cpu01.data        14190491                       # Total bandwidth to/from this memory (bytes/s)
system.mem_ctrls.bw_total::cpu02.inst        45232189                       # Total bandwidth to/from this memory (bytes/s)
system.mem_ctrls.bw_total::cpu02.data        15077396                       # Total bandwidth to/from this memory (bytes/s)
system.mem_ctrls.bw_total::cpu03.inst        45232189                       # Total bandwidth to/from this memory (bytes/s)
system.mem_ctrls.bw_total::cpu03.data        14190491                       # Total bandwidth to/from this memory (bytes/s)
system.mem_ctrls.bw_total::cpu04.inst        45232189                       # Total bandwidth to/from this memory (bytes/s)
system.mem_ctrls.bw_total::cpu04.data        14190491                       # Total bandwidth to/from this memory (bytes/s)
system.mem_ctrls.bw_total::cpu05.inst        45232189                       # Total bandwidth to/from this memory (bytes/s)
system.mem_ctrls.bw_total::cpu05.data        14190491                       # Total bandwidth to/from this memory (bytes/s)
system.mem_ctrls.bw_total::cpu06.inst        45232189                       # Total bandwidth to/from this memory (bytes/s)
system.mem_ctrls.bw_total::cpu06.data        14190491                       # Total bandwidth to/from this memory (bytes/s)
system.mem_ctrls.bw_total::cpu07.inst        45232189                       # Total bandwidth to/from this memory (bytes/s)
system.mem_ctrls.bw_total::cpu07.data        14190491                       # Total bandwidth to/from this memory (bytes/s)
system.mem_ctrls.bw_total::cpu08.inst        45232189                       # Total bandwidth to/from this memory (bytes/s)
system.mem_ctrls.bw_total::cpu08.data        14190491                       # Total bandwidth to/from this memory (bytes/s)
system.mem_ctrls.bw_total::cpu09.inst        45232189                       # Total bandwidth to/from this memory (bytes/s)
system.mem_ctrls.bw_total::cpu09.data        14190491                       # Total bandwidth to/from this memory (bytes/s)
system.mem_ctrls.bw_total::cpu10.inst        45232189                       # Total bandwidth to/from this memory (bytes/s)
system.mem_ctrls.bw_total::cpu10.data        14190491                       # Total bandwidth to/from this memory (bytes/s)
system.mem_ctrls.bw_total::cpu11.inst        45232189                       # Total bandwidth to/from this memory (bytes/s)
system.mem_ctrls.bw_total::cpu11.data        14190491                       # Total bandwidth to/from this memory (bytes/s)
system.mem_ctrls.bw_total::cpu12.inst        45232189                       # Total bandwidth to/from this memory (bytes/s)
system.mem_ctrls.bw_total::cpu12.data        15964302                       # Total bandwidth to/from this memory (bytes/s)
system.mem_ctrls.bw_total::cpu13.inst        45232189                       # Total bandwidth to/from this memory (bytes/s)
system.mem_ctrls.bw_total::cpu13.data        15077396                       # Total bandwidth to/from this memory (bytes/s)
system.mem_ctrls.bw_total::cpu14.inst        46119095                       # Total bandwidth to/from this memory (bytes/s)
system.mem_ctrls.bw_total::cpu14.data        15077396                       # Total bandwidth to/from this memory (bytes/s)
system.mem_ctrls.bw_total::cpu15.inst        45232189                       # Total bandwidth to/from this memory (bytes/s)
system.mem_ctrls.bw_total::cpu15.data        15077396                       # Total bandwidth to/from this memory (bytes/s)
system.mem_ctrls.bw_total::cpu16.inst        45232189                       # Total bandwidth to/from this memory (bytes/s)
system.mem_ctrls.bw_total::cpu16.data        14190491                       # Total bandwidth to/from this memory (bytes/s)
system.mem_ctrls.bw_total::cpu17.inst        44345283                       # Total bandwidth to/from this memory (bytes/s)
system.mem_ctrls.bw_total::cpu17.data        14190491                       # Total bandwidth to/from this memory (bytes/s)
system.mem_ctrls.bw_total::cpu18.inst        45232189                       # Total bandwidth to/from this memory (bytes/s)
system.mem_ctrls.bw_total::cpu18.data        15077396                       # Total bandwidth to/from this memory (bytes/s)
system.mem_ctrls.bw_total::cpu19.inst        44345283                       # Total bandwidth to/from this memory (bytes/s)
system.mem_ctrls.bw_total::cpu19.data        14190491                       # Total bandwidth to/from this memory (bytes/s)
system.mem_ctrls.bw_total::cpu20.inst        45232189                       # Total bandwidth to/from this memory (bytes/s)
system.mem_ctrls.bw_total::cpu20.data        15077396                       # Total bandwidth to/from this memory (bytes/s)
system.mem_ctrls.bw_total::cpu21.inst        45232189                       # Total bandwidth to/from this memory (bytes/s)
system.mem_ctrls.bw_total::cpu21.data        15077396                       # Total bandwidth to/from this memory (bytes/s)
system.mem_ctrls.bw_total::cpu22.inst        47006000                       # Total bandwidth to/from this memory (bytes/s)
system.mem_ctrls.bw_total::cpu22.data        15077396                       # Total bandwidth to/from this memory (bytes/s)
system.mem_ctrls.bw_total::cpu23.inst        46119095                       # Total bandwidth to/from this memory (bytes/s)
system.mem_ctrls.bw_total::cpu23.data        14190491                       # Total bandwidth to/from this memory (bytes/s)
system.mem_ctrls.bw_total::cpu24.inst        46119095                       # Total bandwidth to/from this memory (bytes/s)
system.mem_ctrls.bw_total::cpu24.data        14190491                       # Total bandwidth to/from this memory (bytes/s)
system.mem_ctrls.bw_total::cpu25.inst        47006000                       # Total bandwidth to/from this memory (bytes/s)
system.mem_ctrls.bw_total::cpu25.data        15077396                       # Total bandwidth to/from this memory (bytes/s)
system.mem_ctrls.bw_total::cpu26.inst        48779812                       # Total bandwidth to/from this memory (bytes/s)
system.mem_ctrls.bw_total::cpu26.data        15077396                       # Total bandwidth to/from this memory (bytes/s)
system.mem_ctrls.bw_total::cpu27.inst        48779812                       # Total bandwidth to/from this memory (bytes/s)
system.mem_ctrls.bw_total::cpu27.data        14190491                       # Total bandwidth to/from this memory (bytes/s)
system.mem_ctrls.bw_total::cpu28.inst        47892906                       # Total bandwidth to/from this memory (bytes/s)
system.mem_ctrls.bw_total::cpu28.data        15077396                       # Total bandwidth to/from this memory (bytes/s)
system.mem_ctrls.bw_total::cpu29.inst        47892906                       # Total bandwidth to/from this memory (bytes/s)
system.mem_ctrls.bw_total::cpu29.data        15077396                       # Total bandwidth to/from this memory (bytes/s)
system.mem_ctrls.bw_total::cpu30.inst        45232189                       # Total bandwidth to/from this memory (bytes/s)
system.mem_ctrls.bw_total::cpu30.data        14190491                       # Total bandwidth to/from this memory (bytes/s)
system.mem_ctrls.bw_total::cpu31.inst        47006000                       # Total bandwidth to/from this memory (bytes/s)
system.mem_ctrls.bw_total::cpu31.data        15077396                       # Total bandwidth to/from this memory (bytes/s)
system.mem_ctrls.bw_total::total           3134324635                       # Total bandwidth to/from this memory (bytes/s)
system.mem_ctrls.readReqs                        3490                       # Number of read requests accepted
system.mem_ctrls.writeReqs                         45                       # Number of write requests accepted
system.mem_ctrls.readBursts                      3490                       # Number of DRAM read bursts, including those serviced by the write queue
system.mem_ctrls.writeBursts                       45                       # Number of DRAM write bursts, including those merged in the write queue
system.mem_ctrls.bytesReadDRAM                 222976                       # Total number of bytes read from DRAM
system.mem_ctrls.bytesReadWrQ                     384                       # Total number of bytes read from write queue
system.mem_ctrls.bytesWritten                    1024                       # Total number of bytes written to DRAM
system.mem_ctrls.bytesReadSys                  223360                       # Total read bytes from the system interface side
system.mem_ctrls.bytesWrittenSys                 2880                       # Total written bytes from the system interface side
system.mem_ctrls.servicedByWrQ                      6                       # Number of DRAM read bursts serviced by the write queue
system.mem_ctrls.mergedWrBursts                     2                       # Number of DRAM write bursts merged with an existing one
system.mem_ctrls.neitherReadNorWriteReqs           22                       # Number of requests that are neither read nor write
system.mem_ctrls.perBankRdBursts::0               369                       # Per bank write bursts
system.mem_ctrls.perBankRdBursts::1              1070                       # Per bank write bursts
system.mem_ctrls.perBankRdBursts::2               487                       # Per bank write bursts
system.mem_ctrls.perBankRdBursts::3               418                       # Per bank write bursts
system.mem_ctrls.perBankRdBursts::4               275                       # Per bank write bursts
system.mem_ctrls.perBankRdBursts::5               274                       # Per bank write bursts
system.mem_ctrls.perBankRdBursts::6               276                       # Per bank write bursts
system.mem_ctrls.perBankRdBursts::7                35                       # Per bank write bursts
system.mem_ctrls.perBankRdBursts::8                14                       # Per bank write bursts
system.mem_ctrls.perBankRdBursts::9                10                       # Per bank write bursts
system.mem_ctrls.perBankRdBursts::10                0                       # Per bank write bursts
system.mem_ctrls.perBankRdBursts::11               14                       # Per bank write bursts
system.mem_ctrls.perBankRdBursts::12                9                       # Per bank write bursts
system.mem_ctrls.perBankRdBursts::13               38                       # Per bank write bursts
system.mem_ctrls.perBankRdBursts::14               40                       # Per bank write bursts
system.mem_ctrls.perBankRdBursts::15              155                       # Per bank write bursts
system.mem_ctrls.perBankWrBursts::0                 1                       # Per bank write bursts
system.mem_ctrls.perBankWrBursts::1                 0                       # Per bank write bursts
system.mem_ctrls.perBankWrBursts::2                 1                       # Per bank write bursts
system.mem_ctrls.perBankWrBursts::3                 3                       # Per bank write bursts
system.mem_ctrls.perBankWrBursts::4                 8                       # Per bank write bursts
system.mem_ctrls.perBankWrBursts::5                 0                       # Per bank write bursts
system.mem_ctrls.perBankWrBursts::6                 0                       # Per bank write bursts
system.mem_ctrls.perBankWrBursts::7                 0                       # Per bank write bursts
system.mem_ctrls.perBankWrBursts::8                 0                       # Per bank write bursts
system.mem_ctrls.perBankWrBursts::9                 0                       # Per bank write bursts
system.mem_ctrls.perBankWrBursts::10                0                       # Per bank write bursts
system.mem_ctrls.perBankWrBursts::11                0                       # Per bank write bursts
system.mem_ctrls.perBankWrBursts::12                0                       # Per bank write bursts
system.mem_ctrls.perBankWrBursts::13                0                       # Per bank write bursts
system.mem_ctrls.perBankWrBursts::14                0                       # Per bank write bursts
system.mem_ctrls.perBankWrBursts::15                3                       # Per bank write bursts
system.mem_ctrls.numRdRetry                       462                       # Number of times read queue was full causing retry
system.mem_ctrls.numWrRetry                         0                       # Number of times write queue was full causing retry
system.mem_ctrls.totGap                      72152500                       # Total gap between requests
system.mem_ctrls.readPktSize::0                     0                       # Read request sizes (log2)
system.mem_ctrls.readPktSize::1                     0                       # Read request sizes (log2)
system.mem_ctrls.readPktSize::2                     0                       # Read request sizes (log2)
system.mem_ctrls.readPktSize::3                     0                       # Read request sizes (log2)
system.mem_ctrls.readPktSize::4                     0                       # Read request sizes (log2)
system.mem_ctrls.readPktSize::5                     0                       # Read request sizes (log2)
system.mem_ctrls.readPktSize::6                  3490                       # Read request sizes (log2)
system.mem_ctrls.writePktSize::0                    0                       # Write request sizes (log2)
system.mem_ctrls.writePktSize::1                    0                       # Write request sizes (log2)
system.mem_ctrls.writePktSize::2                    0                       # Write request sizes (log2)
system.mem_ctrls.writePktSize::3                    0                       # Write request sizes (log2)
system.mem_ctrls.writePktSize::4                    0                       # Write request sizes (log2)
system.mem_ctrls.writePktSize::5                    0                       # Write request sizes (log2)
system.mem_ctrls.writePktSize::6                   45                       # Write request sizes (log2)
system.mem_ctrls.rdQLenPdf::0                     699                       # What read queue length does an incoming req see
system.mem_ctrls.rdQLenPdf::1                     515                       # What read queue length does an incoming req see
system.mem_ctrls.rdQLenPdf::2                     149                       # What read queue length does an incoming req see
system.mem_ctrls.rdQLenPdf::3                      99                       # What read queue length does an incoming req see
system.mem_ctrls.rdQLenPdf::4                      95                       # What read queue length does an incoming req see
system.mem_ctrls.rdQLenPdf::5                      83                       # What read queue length does an incoming req see
system.mem_ctrls.rdQLenPdf::6                      83                       # What read queue length does an incoming req see
system.mem_ctrls.rdQLenPdf::7                      87                       # What read queue length does an incoming req see
system.mem_ctrls.rdQLenPdf::8                     129                       # What read queue length does an incoming req see
system.mem_ctrls.rdQLenPdf::9                     165                       # What read queue length does an incoming req see
system.mem_ctrls.rdQLenPdf::10                    140                       # What read queue length does an incoming req see
system.mem_ctrls.rdQLenPdf::11                    162                       # What read queue length does an incoming req see
system.mem_ctrls.rdQLenPdf::12                    146                       # What read queue length does an incoming req see
system.mem_ctrls.rdQLenPdf::13                    113                       # What read queue length does an incoming req see
system.mem_ctrls.rdQLenPdf::14                     94                       # What read queue length does an incoming req see
system.mem_ctrls.rdQLenPdf::15                     85                       # What read queue length does an incoming req see
system.mem_ctrls.rdQLenPdf::16                     42                       # What read queue length does an incoming req see
system.mem_ctrls.rdQLenPdf::17                     26                       # What read queue length does an incoming req see
system.mem_ctrls.rdQLenPdf::18                     16                       # What read queue length does an incoming req see
system.mem_ctrls.rdQLenPdf::19                     16                       # What read queue length does an incoming req see
system.mem_ctrls.rdQLenPdf::20                     15                       # What read queue length does an incoming req see
system.mem_ctrls.rdQLenPdf::21                     10                       # What read queue length does an incoming req see
system.mem_ctrls.rdQLenPdf::22                      3                       # What read queue length does an incoming req see
system.mem_ctrls.rdQLenPdf::23                      3                       # What read queue length does an incoming req see
system.mem_ctrls.rdQLenPdf::24                      3                       # What read queue length does an incoming req see
system.mem_ctrls.rdQLenPdf::25                      4                       # What read queue length does an incoming req see
system.mem_ctrls.rdQLenPdf::26                      5                       # What read queue length does an incoming req see
system.mem_ctrls.rdQLenPdf::27                      4                       # What read queue length does an incoming req see
system.mem_ctrls.rdQLenPdf::28                      7                       # What read queue length does an incoming req see
system.mem_ctrls.rdQLenPdf::29                      4                       # What read queue length does an incoming req see
system.mem_ctrls.rdQLenPdf::30                     10                       # What read queue length does an incoming req see
system.mem_ctrls.rdQLenPdf::31                    472                       # What read queue length does an incoming req see
system.mem_ctrls.wrQLenPdf::0                       1                       # What write queue length does an incoming req see
system.mem_ctrls.wrQLenPdf::1                       1                       # What write queue length does an incoming req see
system.mem_ctrls.wrQLenPdf::2                       1                       # What write queue length does an incoming req see
system.mem_ctrls.wrQLenPdf::3                       1                       # What write queue length does an incoming req see
system.mem_ctrls.wrQLenPdf::4                       1                       # What write queue length does an incoming req see
system.mem_ctrls.wrQLenPdf::5                       1                       # What write queue length does an incoming req see
system.mem_ctrls.wrQLenPdf::6                       1                       # What write queue length does an incoming req see
system.mem_ctrls.wrQLenPdf::7                       1                       # What write queue length does an incoming req see
system.mem_ctrls.wrQLenPdf::8                       1                       # What write queue length does an incoming req see
system.mem_ctrls.wrQLenPdf::9                       1                       # What write queue length does an incoming req see
system.mem_ctrls.wrQLenPdf::10                      1                       # What write queue length does an incoming req see
system.mem_ctrls.wrQLenPdf::11                      1                       # What write queue length does an incoming req see
system.mem_ctrls.wrQLenPdf::12                      1                       # What write queue length does an incoming req see
system.mem_ctrls.wrQLenPdf::13                      1                       # What write queue length does an incoming req see
system.mem_ctrls.wrQLenPdf::14                      1                       # What write queue length does an incoming req see
system.mem_ctrls.wrQLenPdf::15                      1                       # What write queue length does an incoming req see
system.mem_ctrls.wrQLenPdf::16                      1                       # What write queue length does an incoming req see
system.mem_ctrls.wrQLenPdf::17                      2                       # What write queue length does an incoming req see
system.mem_ctrls.wrQLenPdf::18                      2                       # What write queue length does an incoming req see
system.mem_ctrls.wrQLenPdf::19                      2                       # What write queue length does an incoming req see
system.mem_ctrls.wrQLenPdf::20                      2                       # What write queue length does an incoming req see
system.mem_ctrls.wrQLenPdf::21                      2                       # What write queue length does an incoming req see
system.mem_ctrls.wrQLenPdf::22                      2                       # What write queue length does an incoming req see
system.mem_ctrls.wrQLenPdf::23                      2                       # What write queue length does an incoming req see
system.mem_ctrls.wrQLenPdf::24                      2                       # What write queue length does an incoming req see
system.mem_ctrls.wrQLenPdf::25                      2                       # What write queue length does an incoming req see
system.mem_ctrls.wrQLenPdf::26                      2                       # What write queue length does an incoming req see
system.mem_ctrls.wrQLenPdf::27                      1                       # What write queue length does an incoming req see
system.mem_ctrls.wrQLenPdf::28                      1                       # What write queue length does an incoming req see
system.mem_ctrls.wrQLenPdf::29                      1                       # What write queue length does an incoming req see
system.mem_ctrls.wrQLenPdf::30                      1                       # What write queue length does an incoming req see
system.mem_ctrls.wrQLenPdf::31                      1                       # What write queue length does an incoming req see
system.mem_ctrls.wrQLenPdf::32                      1                       # What write queue length does an incoming req see
system.mem_ctrls.wrQLenPdf::33                      0                       # What write queue length does an incoming req see
system.mem_ctrls.wrQLenPdf::34                      0                       # What write queue length does an incoming req see
system.mem_ctrls.wrQLenPdf::35                      0                       # What write queue length does an incoming req see
system.mem_ctrls.wrQLenPdf::36                      0                       # What write queue length does an incoming req see
system.mem_ctrls.wrQLenPdf::37                      0                       # What write queue length does an incoming req see
system.mem_ctrls.wrQLenPdf::38                      0                       # What write queue length does an incoming req see
system.mem_ctrls.wrQLenPdf::39                      0                       # What write queue length does an incoming req see
system.mem_ctrls.wrQLenPdf::40                      0                       # What write queue length does an incoming req see
system.mem_ctrls.wrQLenPdf::41                      0                       # What write queue length does an incoming req see
system.mem_ctrls.wrQLenPdf::42                      0                       # What write queue length does an incoming req see
system.mem_ctrls.wrQLenPdf::43                      0                       # What write queue length does an incoming req see
system.mem_ctrls.wrQLenPdf::44                      0                       # What write queue length does an incoming req see
system.mem_ctrls.wrQLenPdf::45                      0                       # What write queue length does an incoming req see
system.mem_ctrls.wrQLenPdf::46                      0                       # What write queue length does an incoming req see
system.mem_ctrls.wrQLenPdf::47                      0                       # What write queue length does an incoming req see
system.mem_ctrls.wrQLenPdf::48                      0                       # What write queue length does an incoming req see
system.mem_ctrls.wrQLenPdf::49                      0                       # What write queue length does an incoming req see
system.mem_ctrls.wrQLenPdf::50                      0                       # What write queue length does an incoming req see
system.mem_ctrls.wrQLenPdf::51                      0                       # What write queue length does an incoming req see
system.mem_ctrls.wrQLenPdf::52                      0                       # What write queue length does an incoming req see
system.mem_ctrls.wrQLenPdf::53                      0                       # What write queue length does an incoming req see
system.mem_ctrls.wrQLenPdf::54                      0                       # What write queue length does an incoming req see
system.mem_ctrls.wrQLenPdf::55                      0                       # What write queue length does an incoming req see
system.mem_ctrls.wrQLenPdf::56                      0                       # What write queue length does an incoming req see
system.mem_ctrls.wrQLenPdf::57                      0                       # What write queue length does an incoming req see
system.mem_ctrls.wrQLenPdf::58                      0                       # What write queue length does an incoming req see
system.mem_ctrls.wrQLenPdf::59                      0                       # What write queue length does an incoming req see
system.mem_ctrls.wrQLenPdf::60                      0                       # What write queue length does an incoming req see
system.mem_ctrls.wrQLenPdf::61                      0                       # What write queue length does an incoming req see
system.mem_ctrls.wrQLenPdf::62                      0                       # What write queue length does an incoming req see
system.mem_ctrls.wrQLenPdf::63                      0                       # What write queue length does an incoming req see
system.mem_ctrls.bytesPerActivate::samples          705                       # Bytes accessed per row activation
system.mem_ctrls.bytesPerActivate::mean    314.553191                       # Bytes accessed per row activation
system.mem_ctrls.bytesPerActivate::gmean   163.565451                       # Bytes accessed per row activation
system.mem_ctrls.bytesPerActivate::stdev   366.104952                       # Bytes accessed per row activation
system.mem_ctrls.bytesPerActivate::0-127          358     50.78%     50.78% # Bytes accessed per row activation
system.mem_ctrls.bytesPerActivate::128-255          104     14.75%     65.53% # Bytes accessed per row activation
system.mem_ctrls.bytesPerActivate::256-383           44      6.24%     71.77% # Bytes accessed per row activation
system.mem_ctrls.bytesPerActivate::384-511           27      3.83%     75.60% # Bytes accessed per row activation
system.mem_ctrls.bytesPerActivate::512-639           13      1.84%     77.45% # Bytes accessed per row activation
system.mem_ctrls.bytesPerActivate::640-767           18      2.55%     80.00% # Bytes accessed per row activation
system.mem_ctrls.bytesPerActivate::768-895           14      1.99%     81.99% # Bytes accessed per row activation
system.mem_ctrls.bytesPerActivate::896-1023           12      1.70%     83.69% # Bytes accessed per row activation
system.mem_ctrls.bytesPerActivate::1024-1151          115     16.31%    100.00% # Bytes accessed per row activation
system.mem_ctrls.bytesPerActivate::total          705                       # Bytes accessed per row activation
system.mem_ctrls.rdPerTurnAround::samples            1                       # Reads before turning the bus around for writes
system.mem_ctrls.rdPerTurnAround::mean           2229                       # Reads before turning the bus around for writes
system.mem_ctrls.rdPerTurnAround::gmean   2229.000000                       # Reads before turning the bus around for writes
system.mem_ctrls.rdPerTurnAround::stdev           nan                       # Reads before turning the bus around for writes
system.mem_ctrls.rdPerTurnAround::2176-2303            1    100.00%    100.00% # Reads before turning the bus around for writes
system.mem_ctrls.rdPerTurnAround::total             1                       # Reads before turning the bus around for writes
system.mem_ctrls.wrPerTurnAround::samples            1                       # Writes before turning the bus around for reads
system.mem_ctrls.wrPerTurnAround::mean             16                       # Writes before turning the bus around for reads
system.mem_ctrls.wrPerTurnAround::gmean     16.000000                       # Writes before turning the bus around for reads
system.mem_ctrls.wrPerTurnAround::stdev           nan                       # Writes before turning the bus around for reads
system.mem_ctrls.wrPerTurnAround::16                1    100.00%    100.00% # Writes before turning the bus around for reads
system.mem_ctrls.wrPerTurnAround::total             1                       # Writes before turning the bus around for reads
system.mem_ctrls.totQLat                    208891500                       # Total ticks spent queuing
system.mem_ctrls.totMemAccLat               274216500                       # Total ticks spent from burst creation until serviced by the DRAM
system.mem_ctrls.totBusLat                   17420000                       # Total ticks spent in databus transfers
system.mem_ctrls.avgQLat                     59957.38                       # Average queueing delay per DRAM burst
system.mem_ctrls.avgBusLat                    5000.00                       # Average bus latency per DRAM burst
system.mem_ctrls.avgMemAccLat                78707.38                       # Average memory access latency per DRAM burst
system.mem_ctrls.avgRdBW                      3089.98                       # Average DRAM read bandwidth in MiByte/s
system.mem_ctrls.avgWrBW                        14.19                       # Average achieved write bandwidth in MiByte/s
system.mem_ctrls.avgRdBWSys                   3095.30                       # Average system read bandwidth in MiByte/s
system.mem_ctrls.avgWrBWSys                     39.91                       # Average system write bandwidth in MiByte/s
system.mem_ctrls.peakBW                      12800.00                       # Theoretical peak bandwidth in MiByte/s
system.mem_ctrls.busUtil                        24.25                       # Data bus utilization in percentage
system.mem_ctrls.busUtilRead                    24.14                       # Data bus utilization in percentage for reads
system.mem_ctrls.busUtilWrite                    0.11                       # Data bus utilization in percentage for writes
system.mem_ctrls.avgRdQLen                       4.84                       # Average read queue length when enqueuing
system.mem_ctrls.avgWrQLen                       9.79                       # Average write queue length when enqueuing
system.mem_ctrls.readRowHits                     2780                       # Number of row buffer hits during reads
system.mem_ctrls.writeRowHits                       6                       # Number of row buffer hits during writes
system.mem_ctrls.readRowHitRate                 79.79                       # Row buffer hit rate for reads
system.mem_ctrls.writeRowHitRate                13.95                       # Row buffer hit rate for writes
system.mem_ctrls.avgGap                      20410.89                       # Average gap between requests
system.mem_ctrls.pageHitRate                    78.99                       # Row buffer hit rate, read and write combined
system.mem_ctrls_0.actEnergy                  4929120                       # Energy for activate commands per rank (pJ)
system.mem_ctrls_0.preEnergy                  2689500                       # Energy for precharge commands per rank (pJ)
system.mem_ctrls_0.readEnergy                24726000                       # Energy for read commands per rank (pJ)
system.mem_ctrls_0.writeEnergy                  84240                       # Energy for write commands per rank (pJ)
system.mem_ctrls_0.refreshEnergy              4577040                       # Energy for refresh commands per rank (pJ)
system.mem_ctrls_0.actBackEnergy             47574765                       # Energy for active background per rank (pJ)
system.mem_ctrls_0.preBackEnergy               472500                       # Energy for precharge background per rank (pJ)
system.mem_ctrls_0.totalEnergy               85053165                       # Total energy per rank (pJ)
system.mem_ctrls_0.averagePower           1209.150605                       # Core power per rank (mW)
system.mem_ctrls_0.memoryStateTime::IDLE       374000                       # Time in different power states
system.mem_ctrls_0.memoryStateTime::REF       2340000                       # Time in different power states
system.mem_ctrls_0.memoryStateTime::PRE_PDN            0                       # Time in different power states
system.mem_ctrls_0.memoryStateTime::ACT      67640750                       # Time in different power states
system.mem_ctrls_0.memoryStateTime::ACT_PDN            0                       # Time in different power states
system.mem_ctrls_1.actEnergy                   309960                       # Energy for activate commands per rank (pJ)
system.mem_ctrls_1.preEnergy                   169125                       # Energy for precharge commands per rank (pJ)
system.mem_ctrls_1.readEnergy                 1872000                       # Energy for read commands per rank (pJ)
system.mem_ctrls_1.writeEnergy                  19440                       # Energy for write commands per rank (pJ)
system.mem_ctrls_1.refreshEnergy              4577040                       # Energy for refresh commands per rank (pJ)
system.mem_ctrls_1.actBackEnergy             33192810                       # Energy for active background per rank (pJ)
system.mem_ctrls_1.preBackEnergy             13085250                       # Energy for precharge background per rank (pJ)
system.mem_ctrls_1.totalEnergy               53225625                       # Total energy per rank (pJ)
system.mem_ctrls_1.averagePower            756.731060                       # Core power per rank (mW)
system.mem_ctrls_1.memoryStateTime::IDLE     21503250                       # Time in different power states
system.mem_ctrls_1.memoryStateTime::REF       2340000                       # Time in different power states
system.mem_ctrls_1.memoryStateTime::PRE_PDN            0                       # Time in different power states
system.mem_ctrls_1.memoryStateTime::ACT      46506750                       # Time in different power states
system.mem_ctrls_1.memoryStateTime::ACT_PDN            0                       # Time in different power states
system.cpu00.branchPred.lookups                 16880                       # Number of BP lookups
system.cpu00.branchPred.condPredicted           14142                       # Number of conditional branches predicted
system.cpu00.branchPred.condIncorrect            1028                       # Number of conditional branches incorrect
system.cpu00.branchPred.BTBLookups              12896                       # Number of BTB lookups
system.cpu00.branchPred.BTBHits                  9314                       # Number of BTB hits
system.cpu00.branchPred.BTBCorrect                  0                       # Number of correct BTB predictions (this stat may not work properly.
system.cpu00.branchPred.BTBHitPct           72.223945                       # BTB Hit Percentage
system.cpu00.branchPred.usedRAS                  1138                       # Number of times the RAS was used to get a target.
system.cpu00.branchPred.RASInCorrect               15                       # Number of incorrect RAS predictions.
system.cpu_voltage_domain.voltage                   1                       # Voltage in Volts
system.cpu_clk_domain.clock                       500                       # Clock period in ticks
system.cpu00.dstage2_mmu.stage2_tlb.walker.walks            0                       # Table walker walks requested
system.cpu00.dstage2_mmu.stage2_tlb.walker.walkRequestOrigin_Requested::Data            0                       # Table walker requests started/completed, data/inst
system.cpu00.dstage2_mmu.stage2_tlb.walker.walkRequestOrigin_Requested::Inst            0                       # Table walker requests started/completed, data/inst
system.cpu00.dstage2_mmu.stage2_tlb.walker.walkRequestOrigin_Requested::total            0                       # Table walker requests started/completed, data/inst
system.cpu00.dstage2_mmu.stage2_tlb.walker.walkRequestOrigin_Completed::Data            0                       # Table walker requests started/completed, data/inst
system.cpu00.dstage2_mmu.stage2_tlb.walker.walkRequestOrigin_Completed::Inst            0                       # Table walker requests started/completed, data/inst
system.cpu00.dstage2_mmu.stage2_tlb.walker.walkRequestOrigin_Completed::total            0                       # Table walker requests started/completed, data/inst
system.cpu00.dstage2_mmu.stage2_tlb.walker.walkRequestOrigin::total            0                       # Table walker requests started/completed, data/inst
system.cpu00.dstage2_mmu.stage2_tlb.inst_hits            0                       # ITB inst hits
system.cpu00.dstage2_mmu.stage2_tlb.inst_misses            0                       # ITB inst misses
system.cpu00.dstage2_mmu.stage2_tlb.read_hits            0                       # DTB read hits
system.cpu00.dstage2_mmu.stage2_tlb.read_misses            0                       # DTB read misses
system.cpu00.dstage2_mmu.stage2_tlb.write_hits            0                       # DTB write hits
system.cpu00.dstage2_mmu.stage2_tlb.write_misses            0                       # DTB write misses
system.cpu00.dstage2_mmu.stage2_tlb.flush_tlb            0                       # Number of times complete TLB was flushed
system.cpu00.dstage2_mmu.stage2_tlb.flush_tlb_mva            0                       # Number of times TLB was flushed by MVA
system.cpu00.dstage2_mmu.stage2_tlb.flush_tlb_mva_asid            0                       # Number of times TLB was flushed by MVA & ASID
system.cpu00.dstage2_mmu.stage2_tlb.flush_tlb_asid            0                       # Number of times TLB was flushed by ASID
system.cpu00.dstage2_mmu.stage2_tlb.flush_entries            0                       # Number of entries that have been flushed from TLB
system.cpu00.dstage2_mmu.stage2_tlb.align_faults            0                       # Number of TLB faults due to alignment restrictions
system.cpu00.dstage2_mmu.stage2_tlb.prefetch_faults            0                       # Number of TLB faults due to prefetch
system.cpu00.dstage2_mmu.stage2_tlb.domain_faults            0                       # Number of TLB faults due to domain restrictions
system.cpu00.dstage2_mmu.stage2_tlb.perms_faults            0                       # Number of TLB faults due to permissions restrictions
system.cpu00.dstage2_mmu.stage2_tlb.read_accesses            0                       # DTB read accesses
system.cpu00.dstage2_mmu.stage2_tlb.write_accesses            0                       # DTB write accesses
system.cpu00.dstage2_mmu.stage2_tlb.inst_accesses            0                       # ITB inst accesses
system.cpu00.dstage2_mmu.stage2_tlb.hits            0                       # DTB hits
system.cpu00.dstage2_mmu.stage2_tlb.misses            0                       # DTB misses
system.cpu00.dstage2_mmu.stage2_tlb.accesses            0                       # DTB accesses
system.cpu00.dtb.walker.walks                       0                       # Table walker walks requested
system.cpu00.dtb.walker.walkRequestOrigin_Requested::Data            0                       # Table walker requests started/completed, data/inst
system.cpu00.dtb.walker.walkRequestOrigin_Requested::Inst            0                       # Table walker requests started/completed, data/inst
system.cpu00.dtb.walker.walkRequestOrigin_Requested::total            0                       # Table walker requests started/completed, data/inst
system.cpu00.dtb.walker.walkRequestOrigin_Completed::Data            0                       # Table walker requests started/completed, data/inst
system.cpu00.dtb.walker.walkRequestOrigin_Completed::Inst            0                       # Table walker requests started/completed, data/inst
system.cpu00.dtb.walker.walkRequestOrigin_Completed::total            0                       # Table walker requests started/completed, data/inst
system.cpu00.dtb.walker.walkRequestOrigin::total            0                       # Table walker requests started/completed, data/inst
system.cpu00.dtb.inst_hits                          0                       # ITB inst hits
system.cpu00.dtb.inst_misses                        0                       # ITB inst misses
system.cpu00.dtb.read_hits                          0                       # DTB read hits
system.cpu00.dtb.read_misses                        0                       # DTB read misses
system.cpu00.dtb.write_hits                         0                       # DTB write hits
system.cpu00.dtb.write_misses                       0                       # DTB write misses
system.cpu00.dtb.flush_tlb                          0                       # Number of times complete TLB was flushed
system.cpu00.dtb.flush_tlb_mva                      0                       # Number of times TLB was flushed by MVA
system.cpu00.dtb.flush_tlb_mva_asid                 0                       # Number of times TLB was flushed by MVA & ASID
system.cpu00.dtb.flush_tlb_asid                     0                       # Number of times TLB was flushed by ASID
system.cpu00.dtb.flush_entries                      0                       # Number of entries that have been flushed from TLB
system.cpu00.dtb.align_faults                       0                       # Number of TLB faults due to alignment restrictions
system.cpu00.dtb.prefetch_faults                    0                       # Number of TLB faults due to prefetch
system.cpu00.dtb.domain_faults                      0                       # Number of TLB faults due to domain restrictions
system.cpu00.dtb.perms_faults                       0                       # Number of TLB faults due to permissions restrictions
system.cpu00.dtb.read_accesses                      0                       # DTB read accesses
system.cpu00.dtb.write_accesses                     0                       # DTB write accesses
system.cpu00.dtb.inst_accesses                      0                       # ITB inst accesses
system.cpu00.dtb.hits                               0                       # DTB hits
system.cpu00.dtb.misses                             0                       # DTB misses
system.cpu00.dtb.accesses                           0                       # DTB accesses
system.cpu00.istage2_mmu.stage2_tlb.walker.walks            0                       # Table walker walks requested
system.cpu00.istage2_mmu.stage2_tlb.walker.walkRequestOrigin_Requested::Data            0                       # Table walker requests started/completed, data/inst
system.cpu00.istage2_mmu.stage2_tlb.walker.walkRequestOrigin_Requested::Inst            0                       # Table walker requests started/completed, data/inst
system.cpu00.istage2_mmu.stage2_tlb.walker.walkRequestOrigin_Requested::total            0                       # Table walker requests started/completed, data/inst
system.cpu00.istage2_mmu.stage2_tlb.walker.walkRequestOrigin_Completed::Data            0                       # Table walker requests started/completed, data/inst
[...]
system.membus.snoop_fanout::3                       0      0.00%      0.00% # Request fanout histogram
system.membus.snoop_fanout::4                       0      0.00%      0.00% # Request fanout histogram
system.membus.snoop_fanout::5                       0      0.00%      0.00% # Request fanout histogram
system.membus.snoop_fanout::6                       0      0.00%      0.00% # Request fanout histogram
system.membus.snoop_fanout::7                       0      0.00%      0.00% # Request fanout histogram
system.membus.snoop_fanout::8                       0      0.00%      0.00% # Request fanout histogram
system.membus.snoop_fanout::9                       0      0.00%      0.00% # Request fanout histogram
system.membus.snoop_fanout::10                      0      0.00%      0.00% # Request fanout histogram
system.membus.snoop_fanout::11                      0      0.00%      0.00% # Request fanout histogram
system.membus.snoop_fanout::12                      0      0.00%      0.00% # Request fanout histogram
system.membus.snoop_fanout::13                      0      0.00%      0.00% # Request fanout histogram
system.membus.snoop_fanout::14                      0      0.00%      0.00% # Request fanout histogram
system.membus.snoop_fanout::15                      0      0.00%      0.00% # Request fanout histogram
system.membus.snoop_fanout::16                      0      0.00%      0.00% # Request fanout histogram
system.membus.snoop_fanout::17                      0      0.00%      0.00% # Request fanout histogram
system.membus.snoop_fanout::18                      0      0.00%      0.00% # Request fanout histogram
system.membus.snoop_fanout::19                      0      0.00%      0.00% # Request fanout histogram
system.membus.snoop_fanout::20                      0      0.00%      0.00% # Request fanout histogram
system.membus.snoop_fanout::21                      0      0.00%      0.00% # Request fanout histogram
system.membus.snoop_fanout::22                      0      0.00%      0.00% # Request fanout histogram
system.membus.snoop_fanout::23                      0      0.00%      0.00% # Request fanout histogram
system.membus.snoop_fanout::24                      0      0.00%      0.00% # Request fanout histogram
system.membus.snoop_fanout::25                      0      0.00%      0.00% # Request fanout histogram
system.membus.snoop_fanout::26                      0      0.00%      0.00% # Request fanout histogram
system.membus.snoop_fanout::27                      0      0.00%      0.00% # Request fanout histogram
system.membus.snoop_fanout::28                      0      0.00%      0.00% # Request fanout histogram
system.membus.snoop_fanout::29                      0      0.00%      0.00% # Request fanout histogram
system.membus.snoop_fanout::30                      0      0.00%      0.00% # Request fanout histogram
system.membus.snoop_fanout::31                      0      0.00%      0.00% # Request fanout histogram
system.membus.snoop_fanout::32                      0      0.00%      0.00% # Request fanout histogram
system.membus.snoop_fanout::33                      0      0.00%      0.00% # Request fanout histogram
system.membus.snoop_fanout::34                      0      0.00%      0.00% # Request fanout histogram
system.membus.snoop_fanout::35                      0      0.00%      0.00% # Request fanout histogram
system.membus.snoop_fanout::36                      0      0.00%      0.00% # Request fanout histogram
system.membus.snoop_fanout::37                      0      0.00%      0.00% # Request fanout histogram
system.membus.snoop_fanout::38                      0      0.00%      0.00% # Request fanout histogram
system.membus.snoop_fanout::39                      0      0.00%      0.00% # Request fanout histogram
system.membus.snoop_fanout::40                      0      0.00%      0.00% # Request fanout histogram
system.membus.snoop_fanout::41                      0      0.00%      0.00% # Request fanout histogram
system.membus.snoop_fanout::42                      0      0.00%      0.00% # Request fanout histogram
system.membus.snoop_fanout::43                      0      0.00%      0.00% # Request fanout histogram
system.membus.snoop_fanout::44                      0      0.00%      0.00% # Request fanout histogram
system.membus.snoop_fanout::45                      0      0.00%      0.00% # Request fanout histogram
system.membus.snoop_fanout::46                      0      0.00%      0.00% # Request fanout histogram
system.membus.snoop_fanout::47                      0      0.00%      0.00% # Request fanout histogram
system.membus.snoop_fanout::48                      0      0.00%      0.00% # Request fanout histogram
system.membus.snoop_fanout::49                      0      0.00%      0.00% # Request fanout histogram
system.membus.snoop_fanout::50                      0      0.00%      0.00% # Request fanout histogram
system.membus.snoop_fanout::51                      0      0.00%      0.00% # Request fanout histogram
system.membus.snoop_fanout::52                      0      0.00%      0.00% # Request fanout histogram
system.membus.snoop_fanout::53                      0      0.00%      0.00% # Request fanout histogram
system.membus.snoop_fanout::54                      0      0.00%      0.00% # Request fanout histogram
system.membus.snoop_fanout::55                      0      0.00%      0.00% # Request fanout histogram
system.membus.snoop_fanout::56                      0      0.00%      0.00% # Request fanout histogram
system.membus.snoop_fanout::57                      0      0.00%      0.00% # Request fanout histogram
system.membus.snoop_fanout::58                      0      0.00%      0.00% # Request fanout histogram
system.membus.snoop_fanout::59                      0      0.00%      0.00% # Request fanout histogram
system.membus.snoop_fanout::60                      0      0.00%      0.00% # Request fanout histogram
system.membus.snoop_fanout::61                      0      0.00%      0.00% # Request fanout histogram
system.membus.snoop_fanout::62                      0      0.00%      0.00% # Request fanout histogram
system.membus.snoop_fanout::63                   9727    100.00%    100.00% # Request fanout histogram
system.membus.snoop_fanout::64                      0      0.00%    100.00% # Request fanout histogram
system.membus.snoop_fanout::overflows               0      0.00%    100.00% # Request fanout histogram
system.membus.snoop_fanout::min_value              63                       # Request fanout histogram
system.membus.snoop_fanout::max_value              63                       # Request fanout histogram
system.membus.snoop_fanout::total                9727                       # Request fanout histogram
system.membus.reqLayer0.occupancy            11034945                       # Layer occupancy (ticks)
system.membus.reqLayer0.utilization              15.3                       # Layer utilization (%)
system.membus.respLayer1.occupancy            3154750                       # Layer occupancy (ticks)
system.membus.respLayer1.utilization              4.4                       # Layer utilization (%)
system.membus.respLayer2.occupancy            4193743                       # Layer occupancy (ticks)
system.membus.respLayer2.utilization              5.8                       # Layer utilization (%)
system.membus.respLayer5.occupancy             270750                       # Layer occupancy (ticks)
system.membus.respLayer5.utilization              0.4                       # Layer utilization (%)
system.membus.respLayer6.occupancy             935478                       # Layer occupancy (ticks)
system.membus.respLayer6.utilization              1.3                       # Layer utilization (%)
system.membus.respLayer9.occupancy             267750                       # Layer occupancy (ticks)
system.membus.respLayer9.utilization              0.4                       # Layer utilization (%)
system.membus.respLayer10.occupancy           1087825                       # Layer occupancy (ticks)
system.membus.respLayer10.utilization             1.5                       # Layer utilization (%)
system.membus.respLayer13.occupancy            269250                       # Layer occupancy (ticks)
system.membus.respLayer13.utilization             0.4                       # Layer utilization (%)
system.membus.respLayer14.occupancy           1125406                       # Layer occupancy (ticks)
system.membus.respLayer14.utilization             1.6                       # Layer utilization (%)
system.membus.respLayer17.occupancy            271750                       # Layer occupancy (ticks)
system.membus.respLayer17.utilization             0.4                       # Layer utilization (%)
system.membus.respLayer18.occupancy           1059838                       # Layer occupancy (ticks)
system.membus.respLayer18.utilization             1.5                       # Layer utilization (%)
system.membus.respLayer21.occupancy            268000                       # Layer occupancy (ticks)
system.membus.respLayer21.utilization             0.4                       # Layer utilization (%)
system.membus.respLayer22.occupancy           1054115                       # Layer occupancy (ticks)
system.membus.respLayer22.utilization             1.5                       # Layer utilization (%)
system.membus.respLayer25.occupancy            271500                       # Layer occupancy (ticks)
system.membus.respLayer25.utilization             0.4                       # Layer utilization (%)
system.membus.respLayer26.occupancy           1039144                       # Layer occupancy (ticks)
system.membus.respLayer26.utilization             1.4                       # Layer utilization (%)
system.membus.respLayer29.occupancy            272000                       # Layer occupancy (ticks)
system.membus.respLayer29.utilization             0.4                       # Layer utilization (%)
system.membus.respLayer30.occupancy           1057918                       # Layer occupancy (ticks)
system.membus.respLayer30.utilization             1.5                       # Layer utilization (%)
system.membus.respLayer33.occupancy            274000                       # Layer occupancy (ticks)
system.membus.respLayer33.utilization             0.4                       # Layer utilization (%)
system.membus.respLayer34.occupancy            923971                       # Layer occupancy (ticks)
system.membus.respLayer34.utilization             1.3                       # Layer utilization (%)
system.membus.respLayer37.occupancy            269500                       # Layer occupancy (ticks)
system.membus.respLayer37.utilization             0.4                       # Layer utilization (%)
system.membus.respLayer38.occupancy           1032883                       # Layer occupancy (ticks)
system.membus.respLayer38.utilization             1.4                       # Layer utilization (%)
system.membus.respLayer41.occupancy            270750                       # Layer occupancy (ticks)
system.membus.respLayer41.utilization             0.4                       # Layer utilization (%)
system.membus.respLayer42.occupancy           1060847                       # Layer occupancy (ticks)
system.membus.respLayer42.utilization             1.5                       # Layer utilization (%)
system.membus.respLayer45.occupancy            268750                       # Layer occupancy (ticks)
system.membus.respLayer45.utilization             0.4                       # Layer utilization (%)
system.membus.respLayer46.occupancy            984389                       # Layer occupancy (ticks)
system.membus.respLayer46.utilization             1.4                       # Layer utilization (%)
system.membus.respLayer49.occupancy            268250                       # Layer occupancy (ticks)
system.membus.respLayer49.utilization             0.4                       # Layer utilization (%)
system.membus.respLayer50.occupancy            966467                       # Layer occupancy (ticks)
system.membus.respLayer50.utilization             1.3                       # Layer utilization (%)
system.membus.respLayer53.occupancy            269500                       # Layer occupancy (ticks)
system.membus.respLayer53.utilization             0.4                       # Layer utilization (%)
system.membus.respLayer54.occupancy           1025367                       # Layer occupancy (ticks)
system.membus.respLayer54.utilization             1.4                       # Layer utilization (%)
system.membus.respLayer57.occupancy            275000                       # Layer occupancy (ticks)
system.membus.respLayer57.utilization             0.4                       # Layer utilization (%)
system.membus.respLayer58.occupancy           1063960                       # Layer occupancy (ticks)
system.membus.respLayer58.utilization             1.5                       # Layer utilization (%)
system.membus.respLayer61.occupancy            269500                       # Layer occupancy (ticks)
system.membus.respLayer61.utilization             0.4                       # Layer utilization (%)
system.membus.respLayer62.occupancy            985377                       # Layer occupancy (ticks)
system.membus.respLayer62.utilization             1.4                       # Layer utilization (%)
system.membus.respLayer65.occupancy            266750                       # Layer occupancy (ticks)
system.membus.respLayer65.utilization             0.4                       # Layer utilization (%)
system.membus.respLayer66.occupancy           1033334                       # Layer occupancy (ticks)
system.membus.respLayer66.utilization             1.4                       # Layer utilization (%)
system.membus.respLayer69.occupancy            262750                       # Layer occupancy (ticks)
system.membus.respLayer69.utilization             0.4                       # Layer utilization (%)
system.membus.respLayer70.occupancy            957221                       # Layer occupancy (ticks)
system.membus.respLayer70.utilization             1.3                       # Layer utilization (%)
system.membus.respLayer73.occupancy            274250                       # Layer occupancy (ticks)
system.membus.respLayer73.utilization             0.4                       # Layer utilization (%)
system.membus.respLayer74.occupancy           1019676                       # Layer occupancy (ticks)
system.membus.respLayer74.utilization             1.4                       # Layer utilization (%)
system.membus.respLayer77.occupancy            262500                       # Layer occupancy (ticks)
system.membus.respLayer77.utilization             0.4                       # Layer utilization (%)
system.membus.respLayer78.occupancy            980885                       # Layer occupancy (ticks)
system.membus.respLayer78.utilization             1.4                       # Layer utilization (%)
system.membus.respLayer81.occupancy            271250                       # Layer occupancy (ticks)
system.membus.respLayer81.utilization             0.4                       # Layer utilization (%)
system.membus.respLayer82.occupancy           1037650                       # Layer occupancy (ticks)
system.membus.respLayer82.utilization             1.4                       # Layer utilization (%)
system.membus.respLayer85.occupancy            269250                       # Layer occupancy (ticks)
system.membus.respLayer85.utilization             0.4                       # Layer utilization (%)
system.membus.respLayer86.occupancy            960665                       # Layer occupancy (ticks)
system.membus.respLayer86.utilization             1.3                       # Layer utilization (%)
system.membus.respLayer89.occupancy            282000                       # Layer occupancy (ticks)
system.membus.respLayer89.utilization             0.4                       # Layer utilization (%)
system.membus.respLayer90.occupancy           1071668                       # Layer occupancy (ticks)
system.membus.respLayer90.utilization             1.5                       # Layer utilization (%)
system.membus.respLayer93.occupancy            274250                       # Layer occupancy (ticks)
system.membus.respLayer93.utilization             0.4                       # Layer utilization (%)
system.membus.respLayer94.occupancy           1046425                       # Layer occupancy (ticks)
system.membus.respLayer94.utilization             1.5                       # Layer utilization (%)
system.membus.respLayer97.occupancy            275500                       # Layer occupancy (ticks)
system.membus.respLayer97.utilization             0.4                       # Layer utilization (%)
system.membus.respLayer98.occupancy           1068604                       # Layer occupancy (ticks)
system.membus.respLayer98.utilization             1.5                       # Layer utilization (%)
system.membus.respLayer101.occupancy           280500                       # Layer occupancy (ticks)
system.membus.respLayer101.utilization            0.4                       # Layer utilization (%)
system.membus.respLayer102.occupancy           973634                       # Layer occupancy (ticks)
system.membus.respLayer102.utilization            1.3                       # Layer utilization (%)
system.membus.respLayer105.occupancy           291250                       # Layer occupancy (ticks)
system.membus.respLayer105.utilization            0.4                       # Layer utilization (%)
system.membus.respLayer106.occupancy          1130895                       # Layer occupancy (ticks)
system.membus.respLayer106.utilization            1.6                       # Layer utilization (%)
system.membus.respLayer109.occupancy           291250                       # Layer occupancy (ticks)
system.membus.respLayer109.utilization            0.4                       # Layer utilization (%)
system.membus.respLayer110.occupancy           953420                       # Layer occupancy (ticks)
system.membus.respLayer110.utilization            1.3                       # Layer utilization (%)
system.membus.respLayer113.occupancy           284750                       # Layer occupancy (ticks)
system.membus.respLayer113.utilization            0.4                       # Layer utilization (%)
system.membus.respLayer114.occupancy          1101318                       # Layer occupancy (ticks)
system.membus.respLayer114.utilization            1.5                       # Layer utilization (%)
system.membus.respLayer117.occupancy           284750                       # Layer occupancy (ticks)
system.membus.respLayer117.utilization            0.4                       # Layer utilization (%)
system.membus.respLayer118.occupancy          1120895                       # Layer occupancy (ticks)
system.membus.respLayer118.utilization            1.6                       # Layer utilization (%)
system.membus.respLayer121.occupancy           270500                       # Layer occupancy (ticks)
system.membus.respLayer121.utilization            0.4                       # Layer utilization (%)
system.membus.respLayer122.occupancy           929442                       # Layer occupancy (ticks)
system.membus.respLayer122.utilization            1.3                       # Layer utilization (%)
system.membus.respLayer125.occupancy           279499                       # Layer occupancy (ticks)
system.membus.respLayer125.utilization            0.4                       # Layer utilization (%)
system.membus.respLayer126.occupancy           976681                       # Layer occupancy (ticks)
system.membus.respLayer126.utilization            1.4                       # Layer utilization (%)

---------- End Simulation Statistics   ----------
